<nodes>
	<node id="1419056407" x="383800.52" y="4084913.40" z="0.00" type="priority" />
	<node id="1603985180" x="383911.40" y="4083331.94" z="0.00" type="priority" />
	<node id="1603985181" x="383893.41" y="4083332.10" z="0.00" type="priority" />
	<node id="1603985188" x="383909.29" y="4083338.99" z="0.00" type="priority" />
	<node id="1604097756" x="383809.95" y="4082883.83" z="0.00" type="priority" />
	<node id="221034485" x="383454.44" y="4082303.23" z="0.00" type="priority" />
	<node id="221034501" x="383446.92" y="4082554.66" z="0.00" type="priority" />
	<node id="221034502" x="383444.09" y="4082634.59" z="0.00" type="priority" />
	<node id="221034508" x="383442.46" y="4082714.58" z="0.00" type="priority" />
	<node id="221051128" x="383032.65" y="4082622.26" z="0.00" type="priority" />
	<node id="221051132" x="383043.35" y="4082622.67" z="0.00" type="priority" />
	<node id="221058179" x="383452.00" y="4083360.82" z="0.00" type="priority" />
	<node id="221058202" x="383396.78" y="4083425.23" z="0.00" type="priority" />
	<node id="221058669" x="384131.88" y="4082733.67" z="0.00" type="priority" />
	<node id="221058683" x="384127.14" y="4082892.38" z="0.00" type="priority" />
	<node id="221095443" x="383859.59" y="4084619.61" z="0.00" type="traffic_light" />
	<node id="221098658" x="382840.55" y="4083177.73" z="0.00" type="priority" />
	<node id="221098663" x="382830.33" y="4083177.59" z="0.00" type="priority" />
	<node id="221109016" x="383030.25" y="4082700.44" z="0.00" type="priority" />
	<node id="221109018" x="383040.87" y="4082700.82" z="0.00" type="priority" />
	<node id="221111585" x="383922.84" y="4083043.92" z="0.00" type="traffic_light" />
	<node id="221111590" x="383942.15" y="4083044.88" z="0.00" type="traffic_light" />
	<node id="221114391" x="383049.44" y="4082287.60" z="0.00" type="priority" />
	<node id="221141568" x="382712.50" y="4083173.82" z="0.00" type="priority" />
	<node id="221141807" x="383626.33" y="4083365.40" z="0.00" type="priority" />
	<node id="221141826" x="383235.41" y="4083353.92" z="0.00" type="priority" />
	<node id="221141838" x="383017.49" y="4083347.71" z="0.00" type="priority" />
	<node id="221141844" x="382904.52" y="4083344.60" z="0.00" type="priority" />
	<node id="221141852" x="382824.90" y="4083342.26" z="0.00" type="priority" />
	<node id="221141856" x="382767.47" y="4083340.39" z="0.00" type="priority" />
	<node id="221144765" x="382826.87" y="4083259.34" z="0.00" type="priority" />
	<node id="221144905" x="383845.40" y="4082172.61" z="0.00" type="priority" />
	<node id="221156882" x="383253.31" y="4082294.56" z="0.00" type="priority" />
	<node id="221160404" x="383723.27" y="4083598.21" z="0.00" type="priority" />
	<node id="221169890" x="382976.93" y="4084319.20" z="0.00" type="priority" />
	<node id="221171595" x="383900.66" y="4084372.37" z="0.00" type="traffic_light" />
	<node id="221173836" x="383024.25" y="4083100.56" z="0.00" type="priority" />
	<node id="221173840" x="382842.44" y="4083095.35" z="0.00" type="priority" />
	<node id="221173848" x="382680.33" y="4083092.66" z="0.00" type="priority" />
	<node id="221173920" x="384081.58" y="4083132.98" z="0.00" type="priority" />
	<node id="221173936" x="383938.22" y="4083127.93" z="0.00" type="priority" />
	<node id="221181984" x="384301.53" y="4082580.63" z="0.00" type="priority" />
	<node id="221182003" x="383947.38" y="4082570.01" z="0.00" type="traffic_light" />
	<node id="221182022" x="383834.33" y="4082566.44" z="0.00" type="priority" />
	<node id="221182030" x="383739.10" y="4082564.03" z="0.00" type="priority" />
	<node id="221182033" x="383647.83" y="4082560.79" z="0.00" type="priority" />
	<node id="221182047" x="383245.67" y="4082549.65" z="0.00" type="priority" />
	<node id="221182050" x="383045.66" y="4082543.97" z="0.00" type="priority" />
	<node id="221199885" x="384677.25" y="4082908.05" z="0.00" type="priority" />
	<node id="221199923" x="383946.92" y="4082888.00" z="0.00" type="traffic_light" />
	<node id="221199934" x="383926.58" y="4082886.20" z="0.00" type="traffic_light" />
	<node id="221200113" x="383952.12" y="4082490.31" z="0.00" type="priority" />
	<node id="221200124" x="383932.79" y="4082648.53" z="0.00" type="priority" />
	<node id="221200128" x="383930.03" y="4082733.48" z="0.00" type="traffic_light" />
	<node id="221200174" x="383909.92" y="4083210.49" z="0.00" type="traffic_light" />
	<node id="221200230" x="383798.70" y="4083600.30" z="0.00" type="traffic_light" />
	<node id="221200276" x="383886.98" y="4084036.79" z="0.00" type="traffic_light" />
	<node id="221200783" x="383950.59" y="4082734.67" z="0.00" type="traffic_light" />
	<node id="221200792" x="383944.57" y="4082966.26" z="0.00" type="priority" />
	<node id="221200826" x="383818.02" y="4083599.53" z="0.00" type="traffic_light" />
	<node id="221200862" x="383905.70" y="4084037.31" z="0.00" type="traffic_light" />
	<node id="221200883" x="383922.62" y="4084195.87" z="0.00" type="priority" />
	<node id="221205777" x="383657.62" y="4082208.13" z="0.00" type="priority" />
	<node id="221206106" x="384343.10" y="4083216.84" z="0.00" type="priority" />
	<node id="221217137" x="384609.11" y="4082747.02" z="0.00" type="priority" />
	<node id="221227048" x="384640.90" y="4083066.77" z="0.00" type="priority" />
	<node id="221229609" x="383022.08" y="4083182.18" z="0.00" type="priority" />
	<node id="221229611" x="383019.77" y="4083267.23" z="0.00" type="priority" />
	<node id="221229675" x="383030.95" y="4084863.80" z="0.00" type="priority" />
	<node id="221234521" x="383243.81" y="4082628.57" z="0.00" type="priority" />
	<node id="221234527" x="383241.05" y="4082708.52" z="0.00" type="priority" />
	<node id="221240479" x="383719.53" y="4082641.81" z="0.00" type="priority" />
	<node id="221240482" x="383645.61" y="4082639.82" z="0.00" type="priority" />
	<node id="221249162" x="383505.20" y="4083194.81" z="0.00" type="priority" />
	<node id="221249170" x="383498.51" y="4083275.53" z="0.00" type="priority" />
	<node id="221249174" x="383497.56" y="4083284.31" z="0.00" type="priority" />
	<node id="221251061" x="383279.16" y="4083853.42" z="0.00" type="priority" />
	<node id="221268486" x="384664.64" y="4082924.42" z="0.00" type="priority" />
	<node id="221278054" x="383628.01" y="4083200.87" z="0.00" type="priority" />
	<node id="221281727" x="383625.74" y="4083278.67" z="0.00" type="priority" />
	<node id="221281730" x="383625.24" y="4083287.66" z="0.00" type="priority" />
	<node id="3469861620" x="383029.92" y="4082710.20" z="0.00" type="priority" />
	<node id="3993792894" x="383933.41" y="4083208.87" z="0.00" type="traffic_light" />
	<node id="5348961049" x="383241.70" y="4082696.64" z="0.00" type="priority" />
	<node id="5348961052" x="383442.86" y="4082702.58" z="0.00" type="priority" />
	<node id="5348961055" x="383652.93" y="4082708.54" z="0.00" type="priority" />
	<node id="5348961056" x="383703.66" y="4082709.89" z="0.00" type="priority" />
	<node id="5348961060" x="383930.56" y="4082721.43" z="0.00" type="traffic_light" />
	<node id="5348961061" x="383951.53" y="4082723.12" z="0.00" type="traffic_light" />
	<node id="5348961074" x="383041.32" y="4082691.36" z="0.00" type="priority" />
	<node id="5348961075" x="383030.41" y="4082691.52" z="0.00" type="priority" />
	<node id="5349230510" x="383644.60" y="4082697.81" z="0.00" type="priority" />
	<node id="7688164181" x="383630.35" y="4082707.94" z="0.00" type="priority" />
</nodes>
