<?xml version="1.0" encoding="UTF-8"?>

<!-- generated on 04/14/21 21:52:51 by Eclipse SUMO netconvert Version 1.8.0
<configuration xmlns:xsi="http://www.w3.org/2001/XMLSchema-instance" xsi:noNamespaceSchemaLocation="http://sumo.dlr.de/xsd/netconvertConfiguration.xsd">

    <input>
        <node-files value="C:\Old%20Dominion%20University\Project\Platform\scenario-convert-21.0\odu_test\sumo\odu_test.nod.xml"/>
        <edge-files value="C:\Old%20Dominion%20University\Project\Platform\scenario-convert-21.0\odu_test\sumo\odu_test.edg.xml"/>
        <connection-files value="C:\Old%20Dominion%20University\Project\Platform\scenario-convert-21.0\odu_test\sumo\odu_test.con.xml"/>
    </input>

    <output>
        <output-file value="C:\Old%20Dominion%20University\Project\Platform\scenario-convert-21.0\odu_test\sumo\odu_test.net.xml"/>
    </output>

    <report>
        <aggregate-warnings value="5"/>
    </report>

</configuration>
-->

<net version="1.6" junctionCornerDetail="5" limitTurnSpeed="5.50" xmlns:xsi="http://www.w3.org/2001/XMLSchema-instance" xsi:noNamespaceSchemaLocation="http://sumo.dlr.de/xsd/net_file.xsd">

    <location netOffset="-382680.33,-4082172.61" convBoundary="0.00,0.00,1996.92,2740.79" origBoundary="382680.33,4082172.61,384677.25,4084913.40" projParameter="!"/>

    <edge id=":1603985180_0" function="internal">
        <lane id=":1603985180_0_0" index="0" speed="18.06" length="3.53" shape="1238.94,1160.77 1238.70,1161.90 1238.48,1162.65 1238.23,1163.40 1237.87,1164.50"/>
        <lane id=":1603985180_0_1" index="1" speed="18.06" length="3.53" shape="1235.79,1160.19 1235.57,1161.22 1235.37,1161.90 1235.13,1162.58 1234.81,1163.58"/>
        <lane id=":1603985180_0_2" index="2" speed="18.06" length="3.53" shape="1232.64,1159.62 1232.45,1160.54 1232.26,1161.16 1232.04,1161.77 1231.74,1162.66"/>
    </edge>
    <edge id=":1603985181_0" function="internal">
        <lane id=":1603985181_0_0" index="0" speed="18.06" length="0.29" shape="1205.22,1158.00 1205.26,1157.80"/>
        <lane id=":1603985181_0_1" index="1" speed="18.06" length="0.29" shape="1208.34,1158.68 1208.40,1158.39"/>
        <lane id=":1603985181_0_2" index="2" speed="18.06" length="0.29" shape="1211.47,1159.36 1211.55,1158.98"/>
    </edge>
    <edge id=":1603985188_0" function="internal">
        <lane id=":1603985188_0_0" index="0" speed="18.06" length="0.48" shape="1236.76,1168.22 1236.75,1168.26 1236.74,1168.29 1236.73,1168.33 1236.72,1168.37"/>
        <lane id=":1603985188_0_1" index="1" speed="18.06" length="0.48" shape="1233.69,1167.30 1233.65,1167.44 1233.63,1167.53 1233.61,1167.62 1233.58,1167.76"/>
        <lane id=":1603985188_0_2" index="2" speed="18.06" length="0.48" shape="1230.63,1166.38 1230.56,1166.61 1230.52,1166.76 1230.49,1166.92 1230.44,1167.15"/>
    </edge>
    <edge id=":1604097756_0" function="internal">
        <lane id=":1604097756_0_0" index="0" speed="3.65" length="4.67" shape="1129.59,712.82 1128.41,712.00 1128.02,711.19 1128.43,710.40 1129.65,709.62"/>
    </edge>
    <edge id=":221034485_0" function="internal">
        <lane id=":221034485_0_0" index="0" speed="3.65" length="4.67" shape="772.51,130.57 773.35,129.40 774.16,129.02 774.95,129.45 775.71,130.67"/>
    </edge>
    <edge id=":221034501_0" function="internal">
        <lane id=":221034501_0_0" index="0" speed="6.55" length="9.12" shape="773.72,383.87 771.26,384.15 769.48,385.16 768.37,386.91 767.93,389.39"/>
    </edge>
    <edge id=":221034501_1" function="internal">
        <lane id=":221034501_1_0" index="0" speed="8.33" length="14.44" shape="773.72,383.87 759.29,383.60"/>
    </edge>
    <edge id=":221034501_2" function="internal">
        <lane id=":221034501_2_0" index="0" speed="8.02" length="14.17" shape="773.72,383.87 769.90,383.20 767.19,381.48 765.61,378.70 765.14,374.85"/>
    </edge>
    <edge id=":221034501_3" function="internal">
        <lane id=":221034501_3_0" index="0" speed="3.65" length="4.67" shape="773.72,383.87 772.55,383.03 772.17,382.22 772.60,381.43 773.82,380.67"/>
    </edge>
    <edge id=":221034501_4" function="internal">
        <lane id=":221034501_4_0" index="0" speed="6.53" length="9.04" shape="768.34,374.92 768.64,377.37 769.65,379.15 771.38,380.25 773.82,380.67"/>
    </edge>
    <edge id=":221034501_5" function="internal">
        <lane id=":221034501_5_0" index="0" speed="8.33" length="14.48" shape="768.34,374.92 767.93,389.39"/>
    </edge>
    <edge id=":221034501_6" function="internal">
        <lane id=":221034501_6_0" index="0" speed="8.06" length="5.98" shape="768.34,374.92 767.70,378.74 766.58,380.52"/>
    </edge>
    <edge id=":221034501_7" function="internal">
        <lane id=":221034501_7_0" index="0" speed="3.65" length="2.34" shape="768.34,374.92 767.51,376.10 766.70,376.48"/>
    </edge>
    <edge id=":221034501_16" function="internal">
        <lane id=":221034501_16_0" index="0" speed="8.06" length="8.28" shape="766.58,380.52 765.98,381.46 763.18,383.08 759.29,383.60"/>
    </edge>
    <edge id=":221034501_17" function="internal">
        <lane id=":221034501_17_0" index="0" speed="3.65" length="2.34" shape="766.70,376.48 765.91,376.07 765.14,374.85"/>
    </edge>
    <edge id=":221034501_8" function="internal">
        <lane id=":221034501_8_0" index="0" speed="6.58" length="9.15" shape="759.31,380.40 761.82,380.07 763.62,379.03 764.73,377.29 765.14,374.85"/>
    </edge>
    <edge id=":221034501_9" function="internal">
        <lane id=":221034501_9_0" index="0" speed="8.33" length="14.51" shape="759.31,380.40 773.82,380.67"/>
    </edge>
    <edge id=":221034501_10" function="internal">
        <lane id=":221034501_10_0" index="0" speed="7.95" length="14.30" shape="759.31,380.40 763.20,380.98 765.93,382.68 767.51,385.48 767.93,389.39"/>
    </edge>
    <edge id=":221034501_11" function="internal">
        <lane id=":221034501_11_0" index="0" speed="3.65" length="4.67" shape="759.31,380.40 760.50,381.21 760.90,382.01 760.49,382.81 759.29,383.60"/>
    </edge>
    <edge id=":221034501_12" function="internal">
        <lane id=":221034501_12_0" index="0" speed="6.45" length="9.03" shape="764.73,389.28 764.47,386.81 763.47,385.04 761.74,383.97 759.29,383.60"/>
    </edge>
    <edge id=":221034501_13" function="internal">
        <lane id=":221034501_13_0" index="0" speed="8.33" length="14.44" shape="764.73,389.28 765.14,374.85"/>
    </edge>
    <edge id=":221034501_14" function="internal">
        <lane id=":221034501_14_0" index="0" speed="8.03" length="5.91" shape="764.73,389.28 765.42,385.41 766.49,383.74"/>
    </edge>
    <edge id=":221034501_15" function="internal">
        <lane id=":221034501_15_0" index="0" speed="3.65" length="2.34" shape="764.73,389.28 765.57,388.11 766.39,387.74"/>
    </edge>
    <edge id=":221034501_18" function="internal">
        <lane id=":221034501_18_0" index="0" speed="8.03" length="8.35" shape="766.49,383.74 767.16,382.69 769.96,381.11 773.82,380.67"/>
    </edge>
    <edge id=":221034501_19" function="internal">
        <lane id=":221034501_19_0" index="0" speed="3.65" length="2.34" shape="766.39,387.74 767.17,388.17 767.93,389.39"/>
    </edge>
    <edge id=":221034502_0" function="internal">
        <lane id=":221034502_0_0" index="0" speed="6.55" length="9.13" shape="771.02,463.67 768.52,463.99 766.73,465.02 765.63,466.77 765.23,469.22"/>
    </edge>
    <edge id=":221034502_1" function="internal">
        <lane id=":221034502_1_0" index="0" speed="8.33" length="14.49" shape="771.02,463.67 756.52,463.49"/>
    </edge>
    <edge id=":221034502_2" function="internal">
        <lane id=":221034502_2_0" index="0" speed="7.96" length="5.94" shape="771.02,463.67 767.14,463.06 765.43,462.00"/>
    </edge>
    <edge id=":221034502_3" function="internal">
        <lane id=":221034502_3_0" index="0" speed="3.65" length="2.34" shape="771.02,463.67 769.83,462.85 769.43,462.05"/>
    </edge>
    <edge id=":221034502_16" function="internal">
        <lane id=":221034502_16_0" index="0" speed="7.96" length="8.35" shape="765.43,462.00 764.41,461.36 762.84,458.56 762.42,454.65"/>
    </edge>
    <edge id=":221034502_17" function="internal">
        <lane id=":221034502_17_0" index="0" speed="3.65" length="2.34" shape="769.43,462.05 769.84,461.25 771.05,460.47"/>
    </edge>
    <edge id=":221034502_4" function="internal">
        <lane id=":221034502_4_0" index="0" speed="6.46" length="9.03" shape="765.62,454.77 765.88,457.24 766.88,459.01 768.60,460.09 771.05,460.47"/>
    </edge>
    <edge id=":221034502_5" function="internal">
        <lane id=":221034502_5_0" index="0" speed="8.33" length="14.46" shape="765.62,454.77 765.23,469.22"/>
    </edge>
    <edge id=":221034502_6" function="internal">
        <lane id=":221034502_6_0" index="0" speed="8.09" length="14.30" shape="765.62,454.77 764.93,458.62 763.19,461.36 760.38,462.98 756.52,463.49"/>
    </edge>
    <edge id=":221034502_7" function="internal">
        <lane id=":221034502_7_0" index="0" speed="3.65" length="4.67" shape="765.62,454.77 764.77,455.94 763.96,456.31 763.18,455.88 762.42,454.65"/>
    </edge>
    <edge id=":221034502_8" function="internal">
        <lane id=":221034502_8_0" index="0" speed="6.62" length="9.22" shape="756.56,460.29 759.05,459.96 760.85,458.92 761.98,457.15 762.42,454.65"/>
    </edge>
    <edge id=":221034502_9" function="internal">
        <lane id=":221034502_9_0" index="0" speed="8.33" length="14.49" shape="756.56,460.29 771.05,460.47"/>
    </edge>
    <edge id=":221034502_10" function="internal">
        <lane id=":221034502_10_0" index="0" speed="7.99" length="5.93" shape="756.56,460.29 760.42,460.89 762.14,461.96"/>
    </edge>
    <edge id=":221034502_11" function="internal">
        <lane id=":221034502_11_0" index="0" speed="3.65" length="2.34" shape="756.56,460.29 757.75,461.10 758.14,461.91"/>
    </edge>
    <edge id=":221034502_18" function="internal">
        <lane id=":221034502_18_0" index="0" speed="7.99" length="8.28" shape="762.14,461.96 763.14,462.58 764.75,465.36 765.23,469.22"/>
    </edge>
    <edge id=":221034502_19" function="internal">
        <lane id=":221034502_19_0" index="0" speed="3.65" length="2.34" shape="758.14,461.91 757.73,462.70 756.52,463.49"/>
    </edge>
    <edge id=":221034502_12" function="internal">
        <lane id=":221034502_12_0" index="0" speed="6.50" length="9.03" shape="762.03,469.17 761.72,466.71 760.70,464.94 758.97,463.87 756.52,463.49"/>
    </edge>
    <edge id=":221034502_13" function="internal">
        <lane id=":221034502_13_0" index="0" speed="8.33" length="14.52" shape="762.03,469.17 762.42,454.65"/>
    </edge>
    <edge id=":221034502_14" function="internal">
        <lane id=":221034502_14_0" index="0" speed="8.04" length="14.27" shape="762.03,469.17 762.65,465.32 764.37,462.59 767.17,460.97 771.05,460.47"/>
    </edge>
    <edge id=":221034502_15" function="internal">
        <lane id=":221034502_15_0" index="0" speed="3.65" length="4.67" shape="762.03,469.17 762.85,467.98 763.66,467.60 764.45,468.01 765.23,469.22"/>
    </edge>
    <edge id=":221034508_0" function="internal">
        <lane id=":221034508_0_0" index="0" speed="13.89" length="9.42" shape="766.71,546.89 757.29,546.63"/>
        <lane id=":221034508_0_1" index="1" speed="13.89" length="9.42" shape="766.79,543.69 757.38,543.43"/>
    </edge>
    <edge id=":221034508_2" function="internal">
        <lane id=":221034508_2_0" index="0" speed="6.07" length="7.78" shape="766.79,543.69 764.03,543.42 762.08,542.78 760.93,541.77 760.58,540.39"/>
    </edge>
    <edge id=":221034508_3" function="internal">
        <lane id=":221034508_3_0" index="0" speed="6.09" length="7.77" shape="763.78,540.50 763.34,541.85 762.13,542.79 760.14,543.32 757.38,543.43"/>
    </edge>
    <edge id=":221034508_4" function="internal">
        <lane id=":221034508_4_0" index="0" speed="3.65" length="4.67" shape="763.78,540.50 762.94,541.67 762.13,542.04 761.34,541.62 760.58,540.39"/>
    </edge>
    <edge id=":221051128_0" function="internal">
        <lane id=":221051128_0_0" index="0" speed="6.10" length="7.76" shape="353.78,451.31 352.43,450.86 351.50,449.65 350.97,447.66 350.85,444.91"/>
    </edge>
    <edge id=":221051128_1" function="internal">
        <lane id=":221051128_1_0" index="0" speed="3.65" length="4.67" shape="353.78,451.31 352.61,450.46 352.24,449.65 352.67,448.86 353.90,448.11"/>
    </edge>
    <edge id=":221051128_2" function="internal">
        <lane id=":221051128_2_0" index="0" speed="13.89" length="9.39" shape="347.37,454.19 347.65,444.82"/>
        <lane id=":221051128_2_1" index="1" speed="13.89" length="9.39" shape="350.57,454.30 350.85,444.91"/>
    </edge>
    <edge id=":221051128_4" function="internal">
        <lane id=":221051128_4_0" index="0" speed="6.08" length="7.77" shape="350.57,454.30 350.85,451.54 351.50,449.60 352.52,448.45 353.90,448.11"/>
    </edge>
    <edge id=":221051132_0" function="internal">
        <lane id=":221051132_0_0" index="0" speed="6.49" length="9.03" shape="373.38,452.06 370.92,452.32 369.13,453.30 368.03,455.02 367.60,457.46"/>
    </edge>
    <edge id=":221051132_1" function="internal">
        <lane id=":221051132_1_0" index="0" speed="8.33" length="14.45" shape="373.38,452.06 358.94,451.50"/>
    </edge>
    <edge id=":221051132_2" function="internal">
        <lane id=":221051132_2_0" index="0" speed="3.65" length="4.67" shape="373.38,452.06 372.21,451.22 371.84,450.40 372.27,449.62 373.50,448.87"/>
    </edge>
    <edge id=":221051132_3" function="internal">
        <lane id=":221051132_3_0" index="0" speed="6.56" length="9.12" shape="368.04,443.01 368.31,445.49 369.32,447.29 371.05,448.42 373.50,448.87"/>
    </edge>
    <edge id=":221051132_4" function="internal">
        <lane id=":221051132_4_0" index="0" speed="13.89" length="14.46" shape="368.04,443.01 367.60,457.46"/>
        <lane id=":221051132_4_1" index="1" speed="13.89" length="14.46" shape="364.84,442.91 364.40,457.36"/>
    </edge>
    <edge id=":221051132_6" function="internal">
        <lane id=":221051132_6_0" index="0" speed="7.31" length="11.74" shape="364.84,442.91 364.37,446.75 363.23,449.46 361.42,451.05 358.94,451.50"/>
    </edge>
    <edge id=":221051132_7" function="internal">
        <lane id=":221051132_7_0" index="0" speed="8.33" length="14.46" shape="359.06,448.31 373.50,448.87"/>
    </edge>
    <edge id=":221051132_8" function="internal">
        <lane id=":221051132_8_0" index="0" speed="7.37" length="11.80" shape="359.06,448.31 361.50,448.95 363.20,450.68 364.17,453.48 364.40,457.36"/>
    </edge>
    <edge id=":221051132_9" function="internal">
        <lane id=":221051132_9_0" index="0" speed="3.65" length="4.67" shape="359.06,448.31 360.23,449.15 360.60,449.97 360.17,450.75 358.94,451.50"/>
    </edge>
    <edge id=":221058179_0" function="internal">
        <lane id=":221058179_0_0" index="0" speed="8.33" length="18.74" shape="782.54,1190.10 777.69,1190.45 773.31,1191.78 769.39,1194.08 765.93,1197.36"/>
    </edge>
    <edge id=":221058179_1" function="internal">
        <lane id=":221058179_1_0" index="0" speed="8.33" length="21.60" shape="782.54,1190.10 760.95,1189.47"/>
    </edge>
    <edge id=":221058179_2" function="internal">
        <lane id=":221058179_2_0" index="0" speed="7.39" length="7.30" shape="782.54,1190.10 776.85,1189.26 775.63,1188.30"/>
    </edge>
    <edge id=":221058179_3" function="internal">
        <lane id=":221058179_3_0" index="0" speed="3.65" length="2.34" shape="782.54,1190.10 781.36,1189.26 780.98,1188.45"/>
    </edge>
    <edge id=":221058179_16" function="internal">
        <lane id=":221058179_16_0" index="0" speed="7.39" length="11.05" shape="775.63,1188.30 774.16,1187.14 774.46,1183.72 777.75,1179.01"/>
    </edge>
    <edge id=":221058179_17" function="internal">
        <lane id=":221058179_17_0" index="0" speed="3.65" length="2.34" shape="780.98,1188.45 781.40,1187.67 782.62,1186.90"/>
    </edge>
    <edge id=":221058179_4" function="internal">
        <lane id=":221058179_4_0" index="0" speed="5.52" length="9.52" shape="780.14,1181.14 778.43,1183.59 778.27,1185.36 779.67,1186.46 782.62,1186.90"/>
    </edge>
    <edge id=":221058179_5" function="internal">
        <lane id=":221058179_5_0" index="0" speed="8.33" length="21.56" shape="780.14,1181.14 765.93,1197.36"/>
    </edge>
    <edge id=":221058179_6" function="internal">
        <lane id=":221058179_6_0" index="0" speed="8.33" length="21.35" shape="780.14,1181.14 776.30,1184.30 771.23,1187.01 765.81,1188.86 760.95,1189.47"/>
    </edge>
    <edge id=":221058179_7" function="internal">
        <lane id=":221058179_7_0" index="0" speed="3.65" length="4.67" shape="780.14,1181.14 778.74,1181.51 777.88,1181.27 777.55,1180.44 777.75,1179.01"/>
    </edge>
    <edge id=":221058179_8" function="internal">
        <lane id=":221058179_8_0" index="0" speed="8.33" length="18.82" shape="761.05,1186.28 765.81,1185.94 770.19,1184.62 774.17,1182.31 777.75,1179.01"/>
    </edge>
    <edge id=":221058179_9" function="internal">
        <lane id=":221058179_9_0" index="0" speed="8.33" length="21.58" shape="761.05,1186.28 782.62,1186.90"/>
    </edge>
    <edge id=":221058179_10" function="internal">
        <lane id=":221058179_10_0" index="0" speed="7.38" length="7.13" shape="761.05,1186.28 766.61,1187.13 767.78,1188.07"/>
    </edge>
    <edge id=":221058179_11" function="internal">
        <lane id=":221058179_11_0" index="0" speed="3.65" length="2.34" shape="761.05,1186.28 762.22,1187.11 762.59,1187.92"/>
    </edge>
    <edge id=":221058179_18" function="internal">
        <lane id=":221058179_18_0" index="0" speed="7.38" length="10.96" shape="767.78,1188.07 769.27,1189.27 769.05,1192.68 765.93,1197.36"/>
    </edge>
    <edge id=":221058179_19" function="internal">
        <lane id=":221058179_19_0" index="0" speed="3.65" length="2.34" shape="762.59,1187.92 762.17,1188.71 760.95,1189.47"/>
    </edge>
    <edge id=":221058179_12" function="internal">
        <lane id=":221058179_12_0" index="0" speed="5.53" length="9.47" shape="763.50,1195.28 765.14,1192.82 765.25,1191.04 763.86,1189.92 760.95,1189.47"/>
    </edge>
    <edge id=":221058179_13" function="internal">
        <lane id=":221058179_13_0" index="0" speed="8.33" length="21.62" shape="763.50,1195.28 777.75,1179.01"/>
    </edge>
    <edge id=":221058179_14" function="internal">
        <lane id=":221058179_14_0" index="0" speed="8.33" length="21.31" shape="763.50,1195.28 767.24,1192.11 772.27,1189.40 777.69,1187.53 782.62,1186.90"/>
    </edge>
    <edge id=":221058179_15" function="internal">
        <lane id=":221058179_15_0" index="0" speed="3.65" length="4.67" shape="763.50,1195.28 764.89,1194.89 765.76,1195.10 766.11,1195.93 765.93,1197.36"/>
    </edge>
    <edge id=":221058202_0" function="internal">
        <lane id=":221058202_0_0" index="0" speed="3.65" length="4.67" shape="717.66,1253.66 716.28,1254.05 715.41,1253.83 715.06,1253.01 715.24,1251.58"/>
    </edge>
    <edge id=":221058669_0" function="internal">
        <lane id=":221058669_0_0" index="0" speed="11.11" length="8.32" shape="1460.15,562.42 1457.79,562.59 1456.27,563.28 1454.88,564.41 1452.92,565.95"/>
    </edge>
    <edge id=":221058669_1" function="internal">
        <lane id=":221058669_1_0" index="0" speed="3.66" length="4.69" shape="1460.15,562.42 1458.91,561.68 1458.46,560.90 1458.82,560.08 1459.98,559.21"/>
    </edge>
    <edge id=":221058669_2" function="internal">
        <lane id=":221058669_2_0" index="0" speed="11.11" length="10.09" shape="1450.39,557.88 1452.73,559.43 1454.72,559.70 1456.95,559.39 1459.98,559.21"/>
    </edge>
    <edge id=":221058669_3" function="internal">
        <lane id=":221058669_3_0" index="0" speed="5.28" length="6.58" shape="1450.39,557.88 1451.84,559.47 1452.44,560.91 1452.19,562.19 1451.10,563.32"/>
    </edge>
    <edge id=":221058683_0" function="internal">
        <lane id=":221058683_0_0" index="0" speed="11.11" length="0.43" shape="1447.15,721.34 1447.02,721.36 1446.94,721.36 1446.85,721.37 1446.72,721.37"/>
    </edge>
    <edge id=":221058683_1" function="internal">
        <lane id=":221058683_1_0" index="0" speed="11.11" length="0.14" shape="1446.61,718.18 1446.65,718.17 1446.68,718.17 1446.71,718.17 1446.75,718.16"/>
    </edge>
    <edge id=":221095443_0" function="internal">
        <lane id=":221095443_0_0" index="0" speed="18.06" length="0.29" shape="1171.45,2445.26 1171.53,2444.94"/>
        <lane id=":221095443_0_1" index="1" speed="18.06" length="0.29" shape="1174.56,2446.00 1174.63,2445.72"/>
        <lane id=":221095443_0_2" index="2" speed="18.06" length="0.29" shape="1177.68,2446.74 1177.74,2446.50"/>
    </edge>
    <edge id=":221098658_0" function="internal">
        <lane id=":221098658_0_0" index="0" speed="8.33" length="12.25" shape="167.40,1006.92 155.16,1006.65"/>
    </edge>
    <edge id=":221098658_1" function="internal">
        <lane id=":221098658_1_0" index="0" speed="7.98" length="5.87" shape="167.40,1006.92 163.55,1006.26 161.90,1005.20"/>
    </edge>
    <edge id=":221098658_2" function="internal">
        <lane id=":221098658_2_0" index="0" speed="3.65" length="2.34" shape="167.40,1006.92 166.23,1006.09 165.85,1005.28"/>
    </edge>
    <edge id=":221098658_9" function="internal">
        <lane id=":221098658_9_0" index="0" speed="7.98" length="8.36" shape="161.90,1005.20 160.85,1004.53 159.30,1001.72 158.89,997.83"/>
    </edge>
    <edge id=":221098658_10" function="internal">
        <lane id=":221098658_10_0" index="0" speed="3.65" length="2.34" shape="165.85,1005.28 166.27,1004.49 167.49,1003.73"/>
    </edge>
    <edge id=":221098658_3" function="internal">
        <lane id=":221098658_3_0" index="0" speed="6.49" length="9.03" shape="162.09,997.96 162.35,1000.42 163.34,1002.20 165.05,1003.31 167.49,1003.73"/>
    </edge>
    <edge id=":221098658_4" function="internal">
        <lane id=":221098658_4_0" index="0" speed="7.62" length="12.55" shape="162.09,997.96 161.53,1001.79 160.19,1004.52 158.07,1006.14 155.16,1006.65"/>
    </edge>
    <edge id=":221098658_5" function="internal">
        <lane id=":221098658_5_0" index="0" speed="3.65" length="4.67" shape="162.09,997.96 161.25,999.12 160.43,999.49 159.65,999.06 158.89,997.83"/>
    </edge>
    <edge id=":221098658_6" function="internal">
        <lane id=":221098658_6_0" index="0" speed="6.04" length="7.51" shape="155.20,1003.45 156.74,1003.12 157.86,1002.07 158.58,1000.31 158.89,997.83"/>
    </edge>
    <edge id=":221098658_7" function="internal">
        <lane id=":221098658_7_0" index="0" speed="8.33" length="12.30" shape="155.20,1003.45 167.49,1003.73"/>
    </edge>
    <edge id=":221098658_8" function="internal">
        <lane id=":221098658_8_0" index="0" speed="3.65" length="2.34" shape="155.20,1003.45 156.39,1004.27 156.78,1005.07"/>
    </edge>
    <edge id=":221098658_11" function="internal">
        <lane id=":221098658_11_0" index="0" speed="3.65" length="2.34" shape="156.78,1005.07 156.37,1005.87 155.16,1006.65"/>
    </edge>
    <edge id=":221098663_0" function="internal">
        <lane id=":221098663_0_0" index="0" speed="6.12" length="7.60" shape="154.96,1006.65 153.43,1006.99 152.29,1008.05 151.53,1009.84 151.17,1012.35"/>
    </edge>
    <edge id=":221098663_1" function="internal">
        <lane id=":221098663_1_0" index="0" speed="8.33" length="12.29" shape="154.96,1006.65 142.67,1006.35"/>
    </edge>
    <edge id=":221098663_2" function="internal">
        <lane id=":221098663_2_0" index="0" speed="3.65" length="2.34" shape="154.96,1006.65 153.77,1005.83 153.38,1005.03"/>
    </edge>
    <edge id=":221098663_9" function="internal">
        <lane id=":221098663_9_0" index="0" speed="3.65" length="2.34" shape="153.38,1005.03 153.79,1004.23 155.00,1003.45"/>
    </edge>
    <edge id=":221098663_3" function="internal">
        <lane id=":221098663_3_0" index="0" speed="8.33" length="12.23" shape="142.77,1003.15 155.00,1003.45"/>
    </edge>
    <edge id=":221098663_4" function="internal">
        <lane id=":221098663_4_0" index="0" speed="7.95" length="5.85" shape="142.77,1003.15 146.64,1003.83 148.25,1004.88"/>
    </edge>
    <edge id=":221098663_5" function="internal">
        <lane id=":221098663_5_0" index="0" speed="3.65" length="2.34" shape="142.77,1003.15 143.94,1003.99 144.32,1004.80"/>
    </edge>
    <edge id=":221098663_10" function="internal">
        <lane id=":221098663_10_0" index="0" speed="7.95" length="8.44" shape="148.25,1004.88 149.33,1005.59 150.84,1008.43 151.17,1012.35"/>
    </edge>
    <edge id=":221098663_11" function="internal">
        <lane id=":221098663_11_0" index="0" speed="3.65" length="2.34" shape="144.32,1004.80 143.89,1005.58 142.67,1006.35"/>
    </edge>
    <edge id=":221098663_6" function="internal">
        <lane id=":221098663_6_0" index="0" speed="6.45" length="9.03" shape="147.98,1012.16 147.77,1009.68 146.81,1007.89 145.11,1006.78 142.67,1006.35"/>
    </edge>
    <edge id=":221098663_7" function="internal">
        <lane id=":221098663_7_0" index="0" speed="7.68" length="12.56" shape="147.98,1012.16 148.61,1008.32 149.99,1005.58 152.12,1003.96 155.00,1003.45"/>
    </edge>
    <edge id=":221098663_8" function="internal">
        <lane id=":221098663_8_0" index="0" speed="3.65" length="4.67" shape="147.98,1012.16 148.85,1011.01 149.67,1010.66 150.44,1011.10 151.17,1012.35"/>
    </edge>
    <edge id=":221109016_0" function="internal">
        <lane id=":221109016_0_0" index="0" speed="8.01" length="4.02" shape="353.69,532.77 349.91,532.09 349.75,531.99"/>
    </edge>
    <edge id=":221109016_1" function="internal">
        <lane id=":221109016_1_0" index="0" speed="6.51" length="4.26" shape="353.80,529.57 351.40,529.14 349.87,528.16"/>
    </edge>
    <edge id=":221109016_4" function="internal">
        <lane id=":221109016_4_0" index="0" speed="8.01" length="10.00" shape="349.75,531.99 347.24,530.37 345.66,527.62 345.19,523.82"/>
    </edge>
    <edge id=":221109016_5" function="internal">
        <lane id=":221109016_5_0" index="0" speed="6.51" length="4.66" shape="349.87,528.16 349.69,528.05 348.69,526.29 348.39,523.87"/>
    </edge>
    <edge id=":221109016_2" function="internal">
        <lane id=":221109016_2_0" index="0" speed="13.89" length="13.76" shape="344.79,537.54 345.19,523.82"/>
        <lane id=":221109016_2_1" index="1" speed="13.89" length="13.76" shape="347.99,537.65 348.39,523.87"/>
    </edge>
    <edge id=":221109018_0" function="internal">
        <lane id=":221109018_0_0" index="0" speed="6.49" length="8.96" shape="371.12,533.42 368.72,533.70 366.99,534.70 365.90,536.43 365.48,538.90"/>
    </edge>
    <edge id=":221109018_1" function="internal">
        <lane id=":221109018_1_0" index="0" speed="13.89" length="14.76" shape="371.12,533.42 356.37,532.86"/>
        <lane id=":221109018_1_1" index="1" speed="13.89" length="14.76" shape="371.24,530.22 356.49,529.67"/>
    </edge>
    <edge id=":221109018_3" function="internal">
        <lane id=":221109018_3_0" index="0" speed="13.89" length="14.61" shape="365.53,524.39 365.48,538.90"/>
        <lane id=":221109018_3_1" index="1" speed="13.89" length="14.61" shape="362.33,524.24 362.28,538.95"/>
    </edge>
    <edge id=":221109018_5" function="internal">
        <lane id=":221109018_5_0" index="0" speed="6.55" length="4.34" shape="362.33,524.24 361.87,526.69 360.85,528.23"/>
    </edge>
    <edge id=":221109018_6" function="internal">
        <lane id=":221109018_6_0" index="0" speed="6.55" length="4.73" shape="360.85,528.23 360.74,528.41 358.94,529.40 356.49,529.67"/>
    </edge>
    <edge id=":221111585_0" function="internal">
        <lane id=":221111585_0_0" index="0" speed="6.87" length="10.29" shape="1244.06,872.99 1241.26,872.45 1239.33,871.16 1238.24,869.12 1238.01,866.32"/>
    </edge>
    <edge id=":221111585_1" function="internal">
        <lane id=":221111585_1_0" index="0" speed="6.09" length="7.85" shape="1244.06,872.99 1242.66,872.52 1241.72,871.29 1241.23,869.29 1241.20,866.52"/>
    </edge>
    <edge id=":221111585_2" function="internal">
        <lane id=":221111585_2_0" index="0" speed="3.65" length="4.67" shape="1244.06,872.99 1242.90,872.13 1242.54,871.31 1242.98,870.53 1244.22,869.79"/>
    </edge>
    <edge id=":221111585_3" function="internal">
        <lane id=":221111585_3_0" index="0" speed="18.06" length="9.65" shape="1234.47,875.94 1234.81,866.13"/>
        <lane id=":221111585_3_1" index="1" speed="18.06" length="9.65" shape="1237.67,875.97 1238.01,866.32"/>
        <lane id=":221111585_3_2" index="2" speed="18.06" length="9.65" shape="1240.87,876.00 1241.20,866.52"/>
    </edge>
    <edge id=":221111585_6" function="internal">
        <lane id=":221111585_6_0" index="0" speed="6.04" length="7.87" shape="1240.87,876.00 1241.10,873.22 1241.73,871.26 1242.77,870.12 1244.22,869.79"/>
    </edge>
    <edge id=":221111590_0" function="internal">
        <lane id=":221111590_0_0" index="0" speed="6.58" length="9.11" shape="1275.35,874.34 1272.90,874.62 1271.10,875.63 1269.96,877.36 1269.49,879.82"/>
    </edge>
    <edge id=":221111590_1" function="internal">
        <lane id=":221111590_1_0" index="0" speed="13.89" length="17.65" shape="1275.35,874.34 1257.72,873.67"/>
    </edge>
    <edge id=":221111590_2" function="internal">
        <lane id=":221111590_2_0" index="0" speed="3.65" length="2.34" shape="1275.35,874.34 1274.18,873.49 1273.82,872.68"/>
    </edge>
    <edge id=":221111590_11" function="internal">