<?xml version="1.0" ?>
<!-- Generated by MOSAIC scenario-convert 18.0 -->
<routes>
	<vType id="default" length="7.5" maxSpeed="50" minGap="2.0" carFollowModel="Krauss" accel="0.80" decel="4.5" sigma="0.5" tau="1"/>
	<route id="1" edges="690905319_221249162_221229609 690905319_221229609_221249162 690905319_221249162_221278054 690905319_221278054_221200174 690905318_221200174_221111585 690905318_221111585_221199934 690905318_221199934_221200128 690905317_221200128_5348961060 554239683_5348961060_5348961061" />
</routes>