<connections>
	<connection from="20598181_221058179_221141807" to="20598181_221141807_221058179" />
	<connection from="20598181_221058179_221141807" to="20613112_221141807_221160404" />
	<connection from="20598181_221058179_221141807" to="20613112_221141807_221281730" />
	<connection from="20613000_221182030_221144905" to="20613000_221144905_221182030" />
	<connection from="554239683_7688164181_5348961055" to="554239683_5348961055_5348961056" />
	<connection from="20604684_221182050_221182047" to="733932630_221182047_221234521" />
	<connection from="20604684_221182050_221182047" to="733932630_221182047_221156882" />
	<connection from="20604684_221182050_221182047" to="20604684_221182047_221034501" />
	<connection from="20604684_221182050_221182047" to="20604684_221182047_221182050" />
	<connection from="20610023_221051128_221051132" to="20610023_221051132_221234521" />
	<connection from="20610023_221051128_221051132" to="20610023_221051132_221051128" />
	<connection from="20610023_221051128_221051132" to="20608905_221051132_5348961074" />
	<connection from="397372834_221229609_221229611" to="20613167_221229611_221249170" />
	<connection from="397372834_221229609_221229611" to="408069063_221229611_221144765" />
	<connection from="397372834_221229609_221229611" to="397372834_221229611_221141838" />
	<connection from="397372834_221229609_221229611" to="397372834_221229611_221229609" />
	<connection from="20613112_221141807_221281730" to="20613112_221281730_221141807" />
	<connection from="20613112_221141807_221281730" to="20613169_221281730_221249174" />
	<connection from="20613112_221141807_221281730" to="20613112_221281730_221281727" />
	<connection from="20606837_221200276_221200230" to="20606837_221200230_1603985181" />
	<connection from="20613112_221281730_221281727" to="20613112_221281727_221281730" />
	<connection from="20613112_221281730_221281727" to="20613112_221281727_221278054" />
	<connection from="20608905_221051132_5348961074" to="20608905_5348961074_221109018" />
	<connection from="20608905_221051132_5348961074" to="554239683_5348961074_5348961049" />
	<connection from="690905318_221111585_221199934" to="661659646_221199934_221199923" />
	<connection from="690905318_221111585_221199934" to="661659646_221199934_1604097756" />
	<connection from="690905318_221111585_221199934" to="690905318_221199934_221200128" />
	<connection from="823495137_5349230510_5348961055" to="554239683_5348961055_5348961056" />
	<connection from="20613167_221249170_221281727" to="20613112_221281727_221281730" />
	<connection from="20613167_221249170_221281727" to="20613112_221281727_221278054" />
	<connection from="554239683_5348961056_5348961060" to="690905317_5348961060_221200124" />
	<connection from="554239683_5348961056_5348961060" to="554239683_5348961060_5348961061" />
	<connection from="661659646_221199934_221199923" to="661659646_221199923_221058683" />
	<connection from="661659646_221199934_221199923" to="661659646_221199923_221199934" />
	<connection from="661659646_221199934_221199923" to="288495751_221199923_221200792" />
	<connection from="20610023_221234521_221051132" to="20610023_221051132_221234521" />
	<connection from="20610023_221234521_221051132" to="20610023_221051132_221051128" />
	<connection from="20610023_221234521_221051132" to="20608905_221051132_5348961074" />
	<connection from="20604684_221182033_221182030" to="20613000_221182030_221240479" />
	<connection from="20604684_221182033_221182030" to="20604684_221182030_221182033" />
	<connection from="20604684_221182033_221182030" to="20613000_221182030_221144905" />
	<connection from="822871053_221200783_221200128" to="20612772_221200128_221034508" />
	<connection from="822871053_221200783_221200128" to="690905317_221200128_5348961060" />
	<connection from="690905317_221200128_5348961060" to="690905317_5348961060_221200124" />
	<connection from="690905317_221200128_5348961060" to="554239683_5348961060_5348961061" />
	<connection from="408069063_221144765_221229611" to="20613167_221229611_221249170" />
	<connection from="408069063_221144765_221229611" to="408069063_221229611_221144765" />
	<connection from="408069063_221144765_221229611" to="397372834_221229611_221141838" />
	<connection from="408069063_221144765_221229611" to="397372834_221229611_221229609" />
	<connection from="690905319_221229609_221249162" to="690905319_221249162_221278054" />
	<connection from="690905319_221229609_221249162" to="690905319_221249162_221229609" />
	<connection from="690905319_221229609_221249162" to="20588944_221249162_221249170" />
	<connection from="690905319_221200174_221278054" to="690905319_221278054_221200174" />
	<connection from="690905319_221200174_221278054" to="690905319_221278054_221249162" />
	<connection from="690905319_221200174_221278054" to="20613112_221278054_221281727" />
	<connection from="288495751_3993792894_1603985180" to="814408482_1603985180_1603985188" />
	<connection from="20613112_221141807_221160404" to="20613112_221160404_221141807" />
	<connection from="20598181_221141852_221141856" to="20598181_221141856_221141852" />
	<connection from="20598181_221058179_221141826" to="20598181_221141826_221141838" />
	<connection from="20598181_221058179_221141826" to="20610810_221141826_221251061" />
	<connection from="20598181_221058179_221141826" to="20598181_221141826_221058179" />
	<connection from="20613106_221205777_221182033" to="20613106_221182033_221205777" />
	<connection from="20613106_221205777_221182033" to="20604684_221182033_221182030" />
	<connection from="20613106_221205777_221182033" to="20613106_221182033_221240482" />
	<connection from="20613106_221205777_221182033" to="20604684_221182033_221034501" />
	<connection from="20613106_221182033_221240482" to="20613106_221240482_221182033" />
	<connection from="20613106_221182033_221240482" to="20610023_221240482_221034502" />
	<connection from="20613106_221182033_221240482" to="20610023_221240482_221240479" />
	<connection from="20613106_221182033_221240482" to="20613106_221240482_5349230510" />
	<connection from="20613106_5349230510_221240482" to="20613106_221240482_221182033" />
	<connection from="20613106_5349230510_221240482" to="20610023_221240482_221034502" />
	<connection from="20613106_5349230510_221240482" to="20610023_221240482_221240479" />
	<connection from="20613106_5349230510_221240482" to="20613106_221240482_5349230510" />
	<connection from="554239683_5348961060_5348961061" to="554239683_5348961061_221058669" />
	<connection from="554239683_5348961060_5348961061" to="288495751_5348961061_221200783" />
	<connection from="20608678_221111590_221111585" to="20608678_221111585_221111590" />
	<connection from="20608678_221111590_221111585" to="690905318_221111585_221199934" />
	<connection from="554239683_5348961074_5348961049" to="733932630_5348961049_221234521" />
	<connection from="554239683_5348961074_5348961049" to="733932630_5348961049_221234527" />
	<connection from="554239683_5348961074_5348961049" to="554239683_5348961049_5348961052" />
	<connection from="20598770_221098663_221144765" to="408069063_221144765_221229611" />
	<connection from="20598770_221098663_221144765" to="20598770_221144765_221141852" />
	<connection from="20598770_221098663_221144765" to="20598770_221144765_221098663" />
	<connection from="690905323_221109018_221109016" to="733932631_221109016_5348961075" />
	<connection from="20608905_221114391_221182050" to="20608905_221182050_221051132" />
	<connection from="20608905_221114391_221182050" to="20604684_221182050_221182047" />
	<connection from="20613169_221281730_221249174" to="20613169_221249174_221229611" />
	<connection from="20613169_221281730_221249174" to="20588944_221249174_221249170" />
	<connection from="20613169_221281730_221249174" to="20588944_221249174_221058179" />
	<connection from="20610023_221034502_221240482" to="20613106_221240482_221182033" />
	<connection from="20610023_221034502_221240482" to="20610023_221240482_221034502" />
	<connection from="20610023_221034502_221240482" to="20610023_221240482_221240479" />
	<connection from="20610023_221034502_221240482" to="20613106_221240482_5349230510" />
	<connection from="554239682_221058669_221217137" to="554239682_221217137_221058669" />
	<connection from="20598181_221141844_221141852" to="20598770_221141852_221144765" />
	<connection from="20598181_221141844_221141852" to="20598181_221141852_221141856" />
	<connection from="20598181_221141844_221141852" to="20598181_221141852_221141844" />
	<connection from="397372834_221141838_221229675" to="397372834_221229675_221141838" />
	<connection from="20598181_221141826_221141838" to="397372834_221141838_221229611" />
	<connection from="20598181_221141826_221141838" to="397372834_221141838_221229675" />
	<connection from="20598181_221141826_221141838" to="20598181_221141838_221141844" />
	<connection from="20598181_221141826_221141838" to="20598181_221141838_221141826" />
	<connection from="554239683_5348961055_5348961056" to="20613000_5348961056_221240479" />
	<connection from="554239683_5348961055_5348961056" to="554239683_5348961056_5348961060" />
	<connection from="20613000_221240479_221182030" to="20613000_221182030_221240479" />
	<connection from="20613000_221240479_221182030" to="20604684_221182030_221182033" />
	<connection from="20613000_221240479_221182030" to="20613000_221182030_221144905" />
	<connection from="690905315_221234527_221109018" to="690905323_221109018_221109016" />
	<connection from="690905315_221234527_221109018" to="690905324_221109018_221173836" />
	<connection from="20613112_221160404_221141807" to="20598181_221141807_221058179" />
	<connection from="20613112_221160404_221141807" to="20613112_221141807_221160404" />
	<connection from="20613112_221160404_221141807" to="20613112_221141807_221281730" />
	<connection from="20604684_221034501_221182033" to="20613106_221182033_221205777" />
	<connection from="20604684_221034501_221182033" to="20604684_221182033_221182030" />
	<connection from="20604684_221034501_221182033" to="20613106_221182033_221240482" />
	<connection from="20604684_221034501_221182033" to="20604684_221182033_221034501" />
	<connection from="20610023_221051132_221234521" to="20610023_221234521_221051132" />
	<connection from="20610023_221051132_221234521" to="20610023_221234521_221034502" />
	<connection from="20610023_221051132_221234521" to="733932630_221234521_5348961049" />
	<connection from="20610023_221051132_221234521" to="733932630_221234521_221182047" />
	<connection from="20598181_221141838_221141844" to="20598181_221141844_221141852" />
	<connection from="20598181_221141838_221141844" to="20602702_221141844_221169890" />
	<connection from="20598181_221141838_221141844" to="20598181_221141844_221141838" />
	<connection from="20606837_221200230_1603985181" to="814408484_1603985181_221200174" />
	<connection from="690905315_221034508_221234527" to="690905315_221234527_221109018" />
	<connection from="690905315_221034508_221234527" to="733932630_221234527_5348961049" />
	<connection from="20613106_221240482_221182033" to="20613106_221182033_221205777" />
	<connection from="20613106_221240482_221182033" to="20604684_221182033_221182030" />
	<connection from="20613106_221240482_221182033" to="20613106_221182033_221240482" />
	<connection from="20613106_221240482_221182033" to="20604684_221182033_221034501" />
	<connection from="20606724_221098658_221173840" to="20606724_221173840_221098658" />
	<connection from="20606724_221098658_221173840" to="147197787_221173840_221173848" />
	<connection from="20606724_221098658_221173840" to="147197787_221173840_221173836" />
	<connection from="661659646_221199934_1604097756" to="661659646_1604097756_221199934" />
	<connection from="20608905_5348961074_221109018" to="690905323_221109018_221109016" />
	<connection from="20608905_5348961074_221109018" to="690905324_221109018_221173836" />
	<connection from="20604684_221182047_221182050" to="20608905_221182050_221051132" />
	<connection from="20604684_221182047_221182050" to="20604684_221182050_221182047" />
	<connection from="20613112_221281730_221141807" to="20598181_221141807_221058179" />
	<connection from="20613112_221281730_221141807" to="20613112_221141807_221160404" />
	<connection from="20613112_221281730_221141807" to="20613112_221141807_221281730" />
	<connection from="20602702_221141844_221169890" to="20602702_221169890_221141844" />
	<connection from="690905321_221098658_221098663" to="20598770_221098663_221144765" />
	<connection from="690905321_221098658_221098663" to="690905321_221098663_221141568" />
	<connection from="690905321_221098658_221098663" to="690905321_221098663_221098658" />
	<connection from="20598181_221141844_221141838" to="397372834_221141838_221229611" />
	<connection from="20598181_221141844_221141838" to="397372834_221141838_221229675" />
	<connection from="20598181_221141844_221141838" to="20598181_221141838_221141844" />
	<connection from="20598181_221141844_221141838" to="20598181_221141838_221141826" />
	<connection from="20598181_221141852_221141844" to="20598181_221141844_221141852" />
	<connection from="20598181_221141852_221141844" to="20602702_221141844_221169890" />
	<connection from="20598181_221141852_221141844" to="20598181_221141844_221141838" />
	<connection from="733932630_221234521_221182047" to="733932630_221182047_221234521" />
	<connection from="733932630_221234521_221182047" to="733932630_221182047_221156882" />
	<connection from="733932630_221234521_221182047" to="20604684_221182047_221034501" />
	<connection from="733932630_221234521_221182047" to="20604684_221182047_221182050" />
	<connection from="20612051_221268486_221200792" to="288495751_221200792_221111590" />
	<connection from="20612051_221268486_221200792" to="20612051_221200792_221268486" />
	<connection from="822871053_221058669_221200783" to="822871053_221200783_221200128" />
	<connection from="822871053_221058669_221200783" to="288495751_221200783_221199923" />
	<connection from="20613000_221182030_221240479" to="20610023_221240479_221200124" />
	<connection from="20613000_221182030_221240479" to="20613000_221240479_221182030" />
	<connection from="20613000_221182030_221240479" to="20610023_221240479_221240482" />
	<connection from="20613000_221182030_221240479" to="20613000_221240479_5348961056" />
	<connection from="20613169_221249174_221229611" to="20613167_221229611_221249170" />
	<connection from="20613169_221249174_221229611" to="408069063_221229611_221144765" />
	<connection from="20613169_221249174_221229611" to="397372834_221229611_221141838" />
	<connection from="20613169_221249174_221229611" to="397372834_221229611_221229609" />
	<connection from="554239683_5348961075_5348961074" to="20608905_5348961074_221109018" />
	<connection from="554239683_5348961075_5348961074" to="554239683_5348961074_5348961049" />
	<connection from="20606808_221199885_221058683" to="20606808_221058683_221199885" />
	<connection from="20606808_221199885_221058683" to="661659646_221058683_221199923" />
	<connection from="397372834_221141838_221229611" to="20613167_221229611_221249170" />
	<connection from="397372834_221141838_221229611" to="408069063_221229611_221144765" />
	<connection from="397372834_221141838_221229611" to="397372834_221229611_221141838" />
	<connection from="397372834_221141838_221229611" to="397372834_221229611_221229609" />
	<connection from="20606837_221171595_221200276" to="20606837_221200276_221200230" />
	<connection from="20612051_221200792_221268486" to="20612051_221268486_221200792" />
	<connection from="288495748_221200113_221182003" to="661657689_221182003_221182022" />
	<connection from="288495748_221200113_221182003" to="288495748_221182003_221200113" />
	<connection from="288495748_221200113_221182003" to="661657689_221182003_221181984" />
	<connection from="288495748_221200113_221182003" to="288495751_221182003_5348961061" />
	<connection from="20613167_221229611_221249170" to="20588944_221249170_221249174" />
	<connection from="20613167_221229611_221249170" to="20613167_221249170_221281727" />
	<connection from="20613167_221229611_221249170" to="20588944_221249170_221249162" />
	<connection from="733932631_221051128_221114391" to="20608905_221114391_221182050" />
	<connection from="690905317_221200124_221182003" to="661657689_221182003_221182022" />
	<connection from="690905317_221200124_221182003" to="288495748_221182003_221200113" />
	<connection from="690905317_221200124_221182003" to="661657689_221182003_221181984" />
	<connection from="690905317_221200124_221182003" to="288495751_221182003_5348961061" />
	<connection from="733932630_5348961049_221234521" to="20610023_221234521_221051132" />
	<connection from="733932630_5348961049_221234521" to="20610023_221234521_221034502" />
	<connection from="733932630_5348961049_221234521" to="733932630_221234521_5348961049" />
	<connection from="733932630_5348961049_221234521" to="733932630_221234521_221182047" />
	<connection from="20610810_221141826_221251061" to="20610810_221251061_221141826" />
	<connection from="733932630_221182047_221156882" to="733932630_221156882_221182047" />
	<connection from="733932630_5348961049_221234527" to="690905315_221234527_221109018" />
	<connection from="733932630_5348961049_221234527" to="733932630_221234527_5348961049" />
	<connection from="20613000_221144905_221182030" to="20613000_221182030_221240479" />
	<connection from="20613000_221144905_221182030" to="20604684_221182030_221182033" />
	<connection from="20613000_221144905_221182030" to="20613000_221182030_221144905" />
	<connection from="690905322_221173836_221229609" to="397372834_221229609_221229611" />
	<connection from="690905322_221173836_221229609" to="690905319_221229609_221249162" />
	<connection from="690905322_221173836_221229609" to="690905321_221229609_221098658" />
	<connection from="690905322_221173836_221229609" to="690905322_221229609_221173836" />
	<connection from="690905321_221229609_221098658" to="20606724_221098658_221173840" />
	<connection from="690905321_221229609_221098658" to="690905321_221098658_221098663" />
	<connection from="690905321_221229609_221098658" to="690905321_221098658_221229609" />
	<connection from="147197787_221173848_221173840" to="20606724_221173840_221098658" />
	<connection from="147197787_221173848_221173840" to="147197787_221173840_221173848" />
	<connection from="147197787_221173848_221173840" to="147197787_221173840_221173836" />
	<connection from="20613112_221281727_221281730" to="20613112_221281730_221141807" />
	<connection from="20613112_221281727_221281730" to="20613169_221281730_221249174" />
	<connection from="20613112_221281727_221281730" to="20613112_221281730_221281727" />
	<connection from="20588944_221249174_221058179" to="20598181_221058179_221141807" />
	<connection from="20588944_221249174_221058179" to="20588944_221058179_221249174" />
	<connection from="20588944_221249174_221058179" to="20598181_221058179_221141826" />
	<connection from="20588944_221249174_221058179" to="20588944_221058179_221058202" />
	<connection from="20598770_221144765_221098663" to="20598770_221098663_221144765" />
	<connection from="20598770_221144765_221098663" to="690905321_221098663_221141568" />
	<connection from="20598770_221144765_221098663" to="690905321_221098663_221098658" />
	<connection from="20602702_221169890_221141844" to="20598181_221141844_221141852" />
	<connection from="20602702_221169890_221141844" to="20602702_221141844_221169890" />
	<connection from="20602702_221169890_221141844" to="20598181_221141844_221141838" />
	<connection from="20604684_221034501_221182047" to="733932630_221182047_221234521" />
	<connection from="20604684_221034501_221182047" to="733932630_221182047_221156882" />
	<connection from="20604684_221034501_221182047" to="20604684_221182047_221034501" />
	<connection from="20604684_221034501_221182047" to="20604684_221182047_221182050" />
	<connection from="20613000_5348961056_221240479" to="20610023_221240479_221200124" />
	<connection from="20613000_5348961056_221240479" to="20613000_221240479_221182030" />
	<connection from="20613000_5348961056_221240479" to="20610023_221240479_221240482" />
	<connection from="20613000_5348961056_221240479" to="20613000_221240479_5348961056" />
	<connection from="661659646_221199923_221058683" to="20606808_221058683_221199885" />
	<connection from="661659646_221199923_221058683" to="661659646_221058683_221199923" />
	<connection from="20587106_221034485_221034501" to="20604684_221034501_221182033" />
	<connection from="20587106_221034485_221034501" to="20604684_221034501_221182047" />
	<connection from="20587106_221034485_221034501" to="20587106_221034501_221034502" />
	<connection from="20587106_221034485_221034501" to="20587106_221034501_221034485" />
	<connection from="288495751_221200783_221199923" to="661659646_221199923_221058683" />
	<connection from="288495751_221200783_221199923" to="661659646_221199923_221199934" />
	<connection from="288495751_221200783_221199923" to="288495751_221199923_221200792" />
	<connection from="397372840_221173836_3469861620" to="733932632_3469861620_221109016" />
	<connection from="690905318_221200174_221111585" to="20608678_221111585_221111590" />
	<connection from="690905318_221200174_221111585" to="690905318_221111585_221199934" />
	<connection from="814408484_1603985181_221200174" to="690905319_221200174_221278054" />
	<connection from="814408484_1603985181_221200174" to="690905318_221200174_221111585" />
	<connection from="814408484_1603985181_221200174" to="20598112_221200174_3993792894" />
	<connection from="733932630_221182047_221234521" to="20610023_221234521_221051132" />
	<connection from="733932630_221182047_221234521" to="20610023_221234521_221034502" />
	<connection from="733932630_221182047_221234521" to="733932630_221234521_5348961049" />
	<connection from="733932630_221182047_221234521" to="733932630_221234521_221182047" />
	<connection from="20613106_221182033_221205777" to="20613106_221205777_221182033" />
	<connection from="20610023_221234521_221034502" to="20587106_221034502_221034501" />
	<connection from="20610023_221234521_221034502" to="20587106_221034502_5348961052" />
	<connection from="20610023_221234521_221034502" to="20610023_221034502_221234521" />
	<connection from="20610023_221234521_221034502" to="20610023_221034502_221240482" />
	<connection from="20588944_221249174_221249170" to="20588944_221249170_221249174" />
	<connection from="20588944_221249174_221249170" to="20613167_221249170_221281727" />
	<connection from="20588944_221249174_221249170" to="20588944_221249170_221249162" />
	<connection from="20587106_221034501_221034502" to="20587106_221034502_221034501" />
	<connection from="20587106_221034501_221034502" to="20587106_221034502_5348961052" />
	<connection from="20587106_221034501_221034502" to="20610023_221034502_221234521" />
	<connection from="20587106_221034501_221034502" to="20610023_221034502_221240482" />
	<connection from="20603382_221173920_221173936" to="20603382_221173936_221173920" />
	<connection from="20603382_221173920_221173936" to="288495751_221173936_3993792894" />
	<connection from="20588944_221058202_221058179" to="20598181_221058179_221141807" />
	<connection from="20588944_221058202_221058179" to="20588944_221058179_221249174" />
	<connection from="20588944_221058202_221058179" to="20598181_221058179_221141826" />
	<connection from="20588944_221058202_221058179" to="20588944_221058179_221058202" />
	<connection from="20610023_221034502_221234521" to="20610023_221234521_221051132" />
	<connection from="20610023_221034502_221234521" to="20610023_221234521_221034502" />
	<connection from="20610023_221034502_221234521" to="733932630_221234521_5348961049" />
	<connection from="20610023_221034502_221234521" to="733932630_221234521_221182047" />
	<connection from="733932631_5348961075_221051128" to="733932631_221051128_221114391" />
	<connection from="733932631_5348961075_221051128" to="20610023_221051128_221051132" />
	<connection from="288495751_221173936_3993792894" to="288495751_3993792894_1603985180" />
	<connection from="288495751_221173936_3993792894" to="20598112_3993792894_221206106" />
	<connection from="288495751_221173936_3993792894" to="20598112_3993792894_221200174" />
	<connection from="690905321_221098663_221141568" to="690905321_221141568_221098663" />
	<connection from="690905321_221141568_221098663" to="20598770_221098663_221144765" />
	<connection from="690905321_221141568_221098663" to="690905321_221098663_221141568" />
	<connection from="690905321_221141568_221098663" to="690905321_221098663_221098658" />
	<connection from="20598112_3993792894_221200174" to="690905319_221200174_221278054" />
	<connection from="20598112_3993792894_221200174" to="690905318_221200174_221111585" />
	<connection from="20598112_3993792894_221200174" to="20598112_221200174_3993792894" />
	<connection from="20598112_221206106_3993792894" to="288495751_3993792894_1603985180" />
	<connection from="20598112_221206106_3993792894" to="20598112_3993792894_221206106" />
	<connection from="20598112_221206106_3993792894" to="20598112_3993792894_221200174" />
	<connection from="288495751_221200792_221111590" to="288495751_221111590_221173936" />
	<connection from="288495751_221200792_221111590" to="20608678_221111590_221227048" />
	<connection from="288495751_221200792_221111590" to="20608678_221111590_221111585" />
	<connection from="20610023_221240479_221200124" to="20610023_221200124_221240479" />
	<connection from="20610023_221240479_221200124" to="690905317_221200124_221182003" />
	<connection from="20608678_221111590_221227048" to="20608678_221227048_221111590" />
	<connection from="20606837_221095443_221171595" to="20606837_221171595_221200276" />
	<connection from="397372834_221229675_221141838" to="397372834_221141838_221229611" />
	<connection from="397372834_221229675_221141838" to="397372834_221141838_221229675" />
	<connection from="397372834_221229675_221141838" to="20598181_221141838_221141844" />
	<connection from="397372834_221229675_221141838" to="20598181_221141838_221141826" />
	<connection from="690905319_221249162_221229609" to="397372834_221229609_221229611" />
	<connection from="690905319_221249162_221229609" to="690905319_221229609_221249162" />
	<connection from="690905319_221249162_221229609" to="690905321_221229609_221098658" />
	<connection from="690905319_221249162_221229609" to="690905322_221229609_221173836" />
	<connection from="147197787_221173836_221173840" to="20606724_221173840_221098658" />
	<connection from="147197787_221173836_221173840" to="147197787_221173840_221173848" />
	<connection from="147197787_221173836_221173840" to="147197787_221173840_221173836" />
	<connection from="20604684_221182033_221034501" to="20604684_221034501_221182033" />
	<connection from="20604684_221182033_221034501" to="20604684_221034501_221182047" />
	<connection from="20604684_221182033_221034501" to="20587106_221034501_221034502" />
	<connection from="20604684_221182033_221034501" to="20587106_221034501_221034485" />
	<connection from="554239683_5348961049_5348961052" to="20587106_5348961052_221034502" />
	<connection from="554239683_5348961049_5348961052" to="20587106_5348961052_221034508" />
	<connection from="554239683_5348961049_5348961052" to="554239683_5348961052_7688164181" />
	<connection from="20610023_221200124_221240479" to="20610023_221240479_221200124" />
	<connection from="20610023_221200124_221240479" to="20613000_221240479_221182030" />
	<connection from="20610023_221200124_221240479" to="20610023_221240479_221240482" />
	<connection from="20610023_221200124_221240479" to="20613000_221240479_5348961056" />
	<connection from="690905324_221109018_221173836" to="397372840_221173836_3469861620" />
	<connection from="690905324_221109018_221173836" to="147197787_221173836_221173840" />
	<connection from="690905324_221109018_221173836" to="690905322_221173836_221229609" />
	<connection from="733932632_3469861620_221109016" to="733932631_221109016_5348961075" />
	<connection from="690905321_221098658_221229609" to="397372834_221229609_221229611" />
	<connection from="690905321_221098658_221229609" to="690905319_221229609_221249162" />
	<connection from="690905321_221098658_221229609" to="690905321_221229609_221098658" />
	<connection from="690905321_221098658_221229609" to="690905322_221229609_221173836" />
	<connection from="20608905_221182050_221051132" to="20610023_221051132_221234521" />
	<connection from="20608905_221182050_221051132" to="20610023_221051132_221051128" />
	<connection from="20608905_221182050_221051132" to="20608905_221051132_5348961074" />
	<connection from="554239683_5348961052_7688164181" to="823495136_7688164181_5349230510" />
	<connection from="554239683_5348961052_7688164181" to="554239683_7688164181_5348961055" />
	<connection from="20598181_221141838_221141826" to="20598181_221141826_221141838" />
	<connection from="20598181_221141838_221141826" to="20610810_221141826_221251061" />
	<connection from="20598181_221141838_221141826" to="20598181_221141826_221058179" />
	<connection from="733932630_221156882_221182047" to="733932630_221182047_221234521" />
	<connection from="733932630_221156882_221182047" to="733932630_221182047_221156882" />
	<connection from="733932630_221156882_221182047" to="20604684_221182047_221034501" />
	<connection from="733932630_221156882_221182047" to="20604684_221182047_221182050" />
	<connection from="690905317_5348961060_221200124" to="20610023_221200124_221240479" />
	<connection from="690905317_5348961060_221200124" to="690905317_221200124_221182003" />