<edges>
	<edge id="20598181_221058179_221141807" from="221058179" to="221141807" numLanes="1" shape="383452.00,4083360.82,0.00 383626.33,4083365.40,0.00" speed="8.33" />
	<edge id="20613000_221182030_221144905" from="221182030" to="221144905" numLanes="1" shape="383739.10,4082564.03,0.00 383760.23,4082484.78,0.00 383766.57,4082460.19,0.00 383780.52,4082406.17,0.00 383795.26,4082349.94,0.00 383805.91,4082309.30,0.00 383808.48,4082298.92,0.00 383809.80,4082293.60,0.00 383817.59,4082257.43,0.00 383826.32,4082217.92,0.00 383827.86,4082213.02,0.00 383844.18,4082174.29,0.00 383845.40,4082172.61,0.00" speed="8.33" />
	<edge id="554239683_7688164181_5348961055" from="7688164181" to="5348961055" numLanes="1" shape="383630.35,4082707.94,0.00 383643.54,4082708.28,0.00 383652.93,4082708.54,0.00" speed="13.89" />
	<edge id="20604684_221182050_221182047" from="221182050" to="221182047" numLanes="1" shape="383045.66,4082543.97,0.00 383245.67,4082549.65,0.00" speed="8.33" />
	<edge id="20610023_221051128_221051132" from="221051128" to="221051132" numLanes="1" shape="383032.65,4082622.26,0.00 383043.35,4082622.67,0.00" speed="8.33" />
	<edge id="397372834_221229609_221229611" from="221229609" to="221229611" numLanes="1" shape="383022.08,4083182.18,0.00 383020.85,4083224.32,0.00 383019.77,4083267.23,0.00" speed="8.33" />
	<edge id="20613112_221141807_221281730" from="221141807" to="221281730" numLanes="1" shape="383626.33,4083365.40,0.00 383624.10,4083356.84,0.00 383623.01,4083347.57,0.00 383622.99,4083331.41,0.00 383625.24,4083287.66,0.00" speed="8.33" />
	<edge id="814408481_221200862_221200883" from="221200862" to="221200883" numLanes="3" shape="383905.70,4084037.31,0.00 383917.42,4084082.92,0.00 383921.47,4084101.00,0.00 383922.84,4084117.57,0.00 383923.50,4084131.33,0.00 383924.53,4084143.74,0.00 383922.62,4084195.87,0.00" speed="18.06" />
	<edge id="20606837_221200276_221200230" from="221200276" to="221200230" numLanes="3" shape="383886.98,4084036.79,0.00 383866.46,4083956.79,0.00 383847.86,4083879.74,0.00 383843.11,4083863.38,0.00 383824.27,4083788.83,0.00 383820.58,4083773.63,0.00 383800.74,4083697.46,0.00 383797.24,4083682.87,0.00 383793.33,4083666.89,0.00 383791.53,4083654.15,0.00 383791.08,4083637.97,0.00 383792.24,4083627.11,0.00 383794.76,4083612.44,0.00 383798.70,4083600.30,0.00" speed="18.06" />
	<edge id="20613112_221281730_221281727" from="221281730" to="221281727" numLanes="1" shape="383625.24,4083287.66,0.00 383625.59,4083281.38,0.00 383625.74,4083278.67,0.00" speed="8.33" />
	<edge id="20608905_221051132_5348961074" from="221051132" to="5348961074" numLanes="2" shape="383043.35,4082622.67,0.00 383041.32,4082691.36,0.00" speed="13.89" />
	<edge id="690905318_221111585_221199934" from="221111585" to="221199934" numLanes="3" shape="383922.84,4083043.92,0.00 383923.23,4083037.56,0.00 383926.78,4082892.96,0.00 383926.58,4082886.20,0.00" speed="18.06" />
	<edge id="823495137_5349230510_5348961055" from="5349230510" to="5348961055" numLanes="2" shape="383644.60,4082697.81,0.00 383646.36,4082699.68,0.00 383648.51,4082702.84,0.00 383649.91,4082704.74,0.00 383652.93,4082708.54,0.00" speed="8.33" />
	<edge id="20613167_221249170_221281727" from="221249170" to="221281727" numLanes="2" shape="383498.51,4083275.53,0.00 383600.42,4083278.01,0.00 383625.74,4083278.67,0.00" speed="8.33" />
	<edge id="554239683_5348961056_5348961060" from="5348961056" to="5348961060" numLanes="1" shape="383703.66,4082709.89,0.00 383793.56,4082713.33,0.00 383806.96,4082714.75,0.00 383821.29,4082716.62,0.00 383852.62,4082718.83,0.00 383859.04,4082719.08,0.00 383888.03,4082719.19,0.00 383922.13,4082720.65,0.00 383930.56,4082721.43,0.00" speed="13.89" />
	<edge id="661659646_221199934_221199923" from="221199934" to="221199923" numLanes="1" shape="383926.58,4082886.20,0.00 383946.92,4082888.00,0.00" speed="13.89" />
	<edge id="20610023_221234521_221051132" from="221234521" to="221051132" numLanes="1" shape="383243.81,4082628.57,0.00 383102.39,4082624.97,0.00 383043.35,4082622.67,0.00" speed="8.33" />
	<edge id="20604684_221182033_221182030" from="221182033" to="221182030" numLanes="1" shape="383647.83,4082560.79,0.00 383703.98,4082562.78,0.00 383739.10,4082564.03,0.00" speed="8.33" />
	<edge id="822871053_221200783_221200128" from="221200783" to="221200128" numLanes="2" shape="383950.59,4082734.67,0.00 383930.03,4082733.48,0.00" speed="13.89" />
	<edge id="690905317_221200128_5348961060" from="221200128" to="5348961060" numLanes="3" shape="383930.03,4082733.48,0.00 383930.56,4082721.43,0.00" speed="18.06" />
	<edge id="408069063_221144765_221229611" from="221144765" to="221229611" numLanes="1" shape="382826.87,4083259.34,0.00 382929.25,4083263.04,0.00 383012.82,4083267.21,0.00 383019.77,4083267.23,0.00" speed="8.33" />
	<edge id="690905319_221229609_221249162" from="221229609" to="221249162" numLanes="1" shape="383022.08,4083182.18,0.00 383032.68,4083181.76,0.00 383128.93,4083184.36,0.00 383205.43,4083186.62,0.00 383323.35,4083189.83,0.00 383386.63,4083191.53,0.00 383425.86,4083192.61,0.00 383432.84,4083192.72,0.00 383505.20,4083194.81,0.00" speed="13.89" />
	<edge id="690905319_221200174_221278054" from="221200174" to="221278054" numLanes="1" shape="383909.92,4083210.49,0.00 383901.65,4083210.83,0.00 383847.00,4083209.57,0.00 383766.26,4083207.82,0.00 383750.10,4083207.07,0.00 383677.64,4083205.00,0.00 383636.93,4083202.20,0.00 383628.01,4083200.87,0.00" speed="13.89" />
	<edge id="288495751_3993792894_1603985180" from="3993792894" to="1603985180" numLanes="3" shape="383933.41,4083208.87,0.00 383931.87,4083220.66,0.00 383928.14,4083241.95,0.00 383921.68,4083275.81,0.00 383911.40,4083331.94,0.00" speed="18.06" />
	<edge id="20613112_221141807_221160404" from="221141807" to="221160404" numLanes="1" shape="383626.33,4083365.40,0.00 383662.08,4083433.29,0.00 383710.81,4083498.03,0.00 383721.27,4083511.93,0.00 383726.72,4083524.03,0.00 383726.72,4083533.53,0.00 383726.44,4083550.41,0.00 383724.16,4083584.85,0.00 383723.27,4083598.21,0.00" speed="8.33" />
	<edge id="20598181_221141852_221141856" from="221141852" to="221141856" numLanes="1" shape="382824.90,4083342.26,0.00 382767.47,4083340.39,0.00" speed="8.33" />
	<edge id="20598181_221058179_221141826" from="221058179" to="221141826" numLanes="1" shape="383452.00,4083360.82,0.00 383319.40,4083356.65,0.00 383271.96,4083354.75,0.00 383235.41,4083353.92,0.00" speed="8.33" />
	<edge id="20613106_221205777_221182033" from="221205777" to="221182033" numLanes="1" shape="383657.62,4082208.13,0.00 383654.85,4082305.08,0.00 383651.26,4082402.23,0.00 383650.31,4082481.42,0.00 383647.83,4082560.79,0.00" speed="8.33" />
	<edge id="20613106_221182033_221240482" from="221182033" to="221240482" numLanes="1" shape="383647.83,4082560.79,0.00 383645.61,4082639.82,0.00" speed="8.33" />
	<edge id="20613106_5349230510_221240482" from="5349230510" to="221240482" numLanes="1" shape="383644.60,4082697.81,0.00 383645.61,4082639.82,0.00" speed="8.33" />
	<edge id="554239683_5348961060_5348961061" from="5348961060" to="5348961061" numLanes="1" shape="383930.56,4082721.43,0.00 383951.53,4082723.12,0.00" speed="13.89" />
	<edge id="20608678_221111590_221111585" from="221111590" to="221111585" numLanes="1" shape="383942.15,4083044.88,0.00 383922.84,4083043.92,0.00" speed="13.89" />
	<edge id="554239683_5348961074_5348961049" from="5348961074" to="5348961049" numLanes="1" shape="383041.32,4082691.36,0.00 383051.12,4082690.79,0.00 383232.24,4082696.44,0.00 383241.70,4082696.64,0.00" speed="13.89" />
	<edge id="20598770_221098663_221144765" from="221098663" to="221144765" numLanes="1" shape="382830.33,4083177.59,0.00 382827.91,4083218.96,0.00 382826.87,4083259.34,0.00" speed="8.33" />
	<edge id="690905323_221109018_221109016" from="221109018" to="221109016" numLanes="2" shape="383040.87,4082700.82,0.00 383030.25,4082700.44,0.00" speed="13.89" />
	<edge id="20608905_221114391_221182050" from="221114391" to="221182050" numLanes="2" shape="383049.44,4082287.60,0.00 383051.80,4082296.89,0.00 383050.54,4082363.99,0.00 383050.27,4082386.56,0.00 383048.04,4082464.49,0.00 383045.66,4082543.97,0.00" speed="13.89" />
	<edge id="20613169_221281730_221249174" from="221281730" to="221249174" numLanes="2" shape="383625.24,4083287.66,0.00 383497.56,4083284.31,0.00" speed="8.33" />
	<edge id="20610023_221034502_221240482" from="221034502" to="221240482" numLanes="1" shape="383444.09,4082634.59,0.00 383461.39,4082634.80,0.00 383645.61,4082639.82,0.00" speed="8.33" />
	<edge id="554239682_221058669_221217137" from="221058669" to="221217137" numLanes="1" shape="384131.88,4082733.67,0.00 384137.77,4082733.34,0.00 384296.84,4082738.46,0.00 384353.26,4082740.00,0.00 384609.11,4082747.02,0.00" speed="8.33" />
	<edge id="20598181_221141844_221141852" from="221141844" to="221141852" numLanes="1" shape="382904.52,4083344.60,0.00 382824.90,4083342.26,0.00" speed="8.33" />
	<edge id="397372834_221141838_221229675" from="221141838" to="221229675" numLanes="1" shape="383017.49,4083347.71,0.00 383016.19,4083395.55,0.00 383016.38,4083416.19,0.00 383017.61,4083447.35,0.00 383022.78,4083505.09,0.00 383035.17,4083628.75,0.00 383049.71,4083791.33,0.00 383050.50,4083809.74,0.00 383049.36,4083817.63,0.00 383046.79,4083831.65,0.00 383046.06,4083843.75,0.00 383053.34,4083918.99,0.00 383068.07,4084044.07,0.00 383076.78,4084120.40,0.00 383081.63,4084168.60,0.00 383083.03,4084190.23,0.00 383083.09,4084203.53,0.00 383079.66,4084232.43,0.00 383070.24,4084350.73,0.00 383067.12,4084396.49,0.00 383064.15,4084439.47,0.00 383062.92,4084453.58,0.00 383061.68,4084467.36,0.00 383060.83,4084476.47,0.00 383059.05,4084496.35,0.00 383058.20,4084506.02,0.00 383055.66,4084541.34,0.00 383053.17,4084580.54,0.00 383050.79,4084621.74,0.00 383049.25,4084639.41,0.00 383047.87,4084655.07,0.00 383043.90,4084690.60,0.00 383040.33,4084748.71,0.00 383039.06,4084766.48,0.00 383035.57,4084817.35,0.00 383034.24,4084830.35,0.00 383030.95,4084863.80,0.00" speed="8.33" />
	<edge id="20598181_221141826_221141838" from="221141826" to="221141838" numLanes="1" shape="383235.41,4083353.92,0.00 383172.92,4083353.12,0.00 383117.71,4083350.43,0.00 383017.49,4083347.71,0.00" speed="8.33" />
	<edge id="554239683_5348961055_5348961056" from="5348961055" to="5348961056" numLanes="1" shape="383652.93,4082708.54,0.00 383703.66,4082709.89,0.00" speed="13.89" />
	<edge id="20613000_221240479_221182030" from="221240479" to="221182030" numLanes="1" shape="383719.53,4082641.81,0.00 383739.10,4082564.03,0.00" speed="8.33" />
	<edge id="690905315_221234527_221109018" from="221234527" to="221109018" numLanes="2" shape="383241.05,4082708.52,0.00 383232.21,4082708.29,0.00 383128.35,4082705.31,0.00 383104.84,4082702.95,0.00 383050.59,4082701.20,0.00 383040.87,4082700.82,0.00" speed="13.89" />
	<edge id="20613112_221160404_221141807" from="221160404" to="221141807" numLanes="1" shape="383723.27,4083598.21,0.00 383724.16,4083584.85,0.00 383726.44,4083550.41,0.00 383726.72,4083533.53,0.00 383726.72,4083524.03,0.00 383721.27,4083511.93,0.00 383710.81,4083498.03,0.00 383662.08,4083433.29,0.00 383626.33,4083365.40,0.00" speed="8.33" />
	<edge id="20604684_221034501_221182033" from="221034501" to="221182033" numLanes="1" shape="383446.92,4082554.66,0.00 383647.83,4082560.79,0.00" speed="8.33" />
	<edge id="20610023_221051132_221234521" from="221051132" to="221234521" numLanes="1" shape="383043.35,4082622.67,0.00 383102.39,4082624.97,0.00 383243.81,4082628.57,0.00" speed="8.33" />
	<edge id="20598181_221141838_221141844" from="221141838" to="221141844" numLanes="1" shape="383017.49,4083347.71,0.00 382904.52,4083344.60,0.00" speed="8.33" />
	<edge id="20606837_221200230_1603985181" from="221200230" to="1603985181" numLanes="3" shape="383798.70,4083600.30,0.00 383803.60,4083589.00,0.00 383853.51,4083472.04,0.00 383867.12,4083440.22,0.00 383874.67,4083417.75,0.00 383879.64,4083394.42,0.00 383890.04,4083347.58,0.00 383893.41,4083332.10,0.00" speed="18.06" />
	<edge id="690905315_221034508_221234527" from="221034508" to="221234527" numLanes="2" shape="383442.46,4082714.58,0.00 383431.55,4082714.25,0.00 383250.06,4082708.89,0.00 383241.05,4082708.52,0.00" speed="13.89" />
	<edge id="20613106_221240482_221182033" from="221240482" to="221182033" numLanes="1" shape="383645.61,4082639.82,0.00 383647.83,4082560.79,0.00" speed="8.33" />
	<edge id="20606724_221098658_221173840" from="221098658" to="221173840" numLanes="1" shape="382840.55,4083177.73,0.00 382842.31,4083131.08,0.00 382842.44,4083095.35,0.00" speed="8.33" />
	<edge id="661659646_221199934_1604097756" from="221199934" to="1604097756" numLanes="1" shape="383926.58,4082886.20,0.00 383920.48,4082885.78,0.00 383830.29,4082884.19,0.00 383809.95,4082883.83,0.00" speed="13.89" />
	<edge id="20608905_5348961074_221109018" from="5348961074" to="221109018" numLanes="2" shape="383041.32,4082691.36,0.00 383040.87,4082700.82,0.00" speed="13.89" />
	<edge id="20604684_221182047_221182050" from="221182047" to="221182050" numLanes="1" shape="383245.67,4082549.65,0.00 383045.66,4082543.97,0.00" speed="8.33" />
	<edge id="20613112_221281730_221141807" from="221281730" to="221141807" numLanes="1" shape="383625.24,4083287.66,0.00 383622.99,4083331.41,0.00 383623.01,4083347.57,0.00 383624.10,4083356.84,0.00 383626.33,4083365.40,0.00" speed="8.33" />
	<edge id="20602702_221141844_221169890" from="221141844" to="221169890" numLanes="1" shape="382904.52,4083344.60,0.00 382903.29,4083384.68,0.00 382904.32,4083430.99,0.00 382908.65,4083488.68,0.00 382910.24,4083507.52,0.00 382915.21,4083564.05,0.00 382921.85,4083638.85,0.00 382926.51,4083685.95,0.00 382931.56,4083741.47,0.00 382934.46,4083771.28,0.00 382935.30,4083780.14,0.00 382937.62,4083806.74,0.00 382940.57,4083839.88,0.00 382942.66,4083861.60,0.00 382944.64,4083882.98,0.00 382955.10,4083976.41,0.00 382958.77,4084009.17,0.00 382963.99,4084058.04,0.00 382970.43,4084111.65,0.00 382975.27,4084152.20,0.00 382984.74,4084220.62,0.00 382981.00,4084252.81,0.00 382975.50,4084265.09,0.00 382978.28,4084276.38,0.00 382976.93,4084319.20,0.00" speed="8.33" />
	<edge id="690905321_221098658_221098663" from="221098658" to="221098663" numLanes="1" shape="382840.55,4083177.73,0.00 382830.33,4083177.59,0.00" speed="8.33" />
	<edge id="20598181_221141844_221141838" from="221141844" to="221141838" numLanes="1" shape="382904.52,4083344.60,0.00 383017.49,4083347.71,0.00" speed="8.33" />
	<edge id="20598181_221141852_221141844" from="221141852" to="221141844" numLanes="1" shape="382824.90,4083342.26,0.00 382904.52,4083344.60,0.00" speed="8.33" />
	<edge id="733932630_221234521_221182047" from="221234521" to="221182047" numLanes="1" shape="383243.81,4082628.57,0.00 383245.67,4082549.65,0.00" speed="8.33" />
	<edge id="20612051_221268486_221200792" from="221268486" to="221200792" numLanes="1" shape="384664.64,4082924.42,0.00 384664.12,4082958.27,0.00 384659.47,4082970.43,0.00 384642.04,4082980.32,0.00 384602.38,4082982.44,0.00 384303.47,4082976.49,0.00 384206.43,4082974.31,0.00 384172.73,4082973.56,0.00 384159.46,4082973.26,0.00 384130.63,4082972.62,0.00 384124.63,4082972.54,0.00 384119.77,4082972.32,0.00 384000.03,4082967.97,0.00 383951.54,4082966.20,0.00 383944.57,4082966.26,0.00" speed="8.33" />
	<edge id="822871053_221058669_221200783" from="221058669" to="221200783" numLanes="2" shape="384131.88,4082733.67,0.00 384126.24,4082737.58,0.00 384073.73,4082736.55,0.00 384048.48,4082736.04,0.00 384023.19,4082735.54,0.00 383958.79,4082735.51,0.00 383950.59,4082734.67,0.00" speed="13.89" />
	<edge id="20613000_221182030_221240479" from="221182030" to="221240479" numLanes="1" shape="383739.10,4082564.03,0.00 383719.53,4082641.81,0.00" speed="8.33" />
	<edge id="20613169_221249174_221229611" from="221249174" to="221229611" numLanes="2" shape="383497.56,4083284.31,0.00 383374.84,4083280.71,0.00 383135.43,4083273.68,0.00 383032.68,4083270.70,0.00 383019.77,4083267.23,0.00" speed="8.33" />
	<edge id="554239683_5348961075_5348961074" from="5348961075" to="5348961074" numLanes="1" shape="383030.41,4082691.52,0.00 383041.32,4082691.36,0.00" speed="13.89" />
	<edge id="20606808_221199885_221058683" from="221199885" to="221058683" numLanes="1" shape="384677.25,4082908.05,0.00 384604.76,4082906.42,0.00 384292.84,4082896.30,0.00 384133.04,4082891.64,0.00 384127.14,4082892.38,0.00" speed="8.33" />
	<edge id="397372834_221141838_221229611" from="221141838" to="221229611" numLanes="1" shape="383017.49,4083347.71,0.00 383018.59,4083306.55,0.00 383019.77,4083267.23,0.00" speed="8.33" />
	<edge id="20606837_221171595_221200276" from="221171595" to="221200276" numLanes="3" shape="383900.66,4084372.37,0.00 383905.08,4084196.04,0.00 383906.14,4084136.98,0.00 383905.07,4084117.05,0.00 383899.60,4084086.87,0.00 383886.98,4084036.79,0.00" speed="18.06" />
	<edge id="20612051_221200792_221268486" from="221200792" to="221268486" numLanes="1" shape="383944.57,4082966.26,0.00 383951.54,4082966.20,0.00 384000.03,4082967.97,0.00 384119.77,4082972.32,0.00 384124.63,4082972.54,0.00 384130.63,4082972.62,0.00 384159.46,4082973.26,0.00 384172.73,4082973.56,0.00 384206.43,4082974.31,0.00 384303.47,4082976.49,0.00 384602.38,4082982.44,0.00 384642.04,4082980.32,0.00 384659.47,4082970.43,0.00 384664.12,4082958.27,0.00 384664.64,4082924.42,0.00" speed="8.33" />
	<edge id="288495748_221200113_221182003" from="221200113" to="221182003" numLanes="3" shape="383952.12,4082490.31,0.00 383953.46,4082499.42,0.00 383951.78,4082516.33,0.00 383948.85,4082527.27,0.00 383946.67,4082562.94,0.00 383947.38,4082570.01,0.00" speed="18.06" />
	<edge id="20613167_221229611_221249170" from="221229611" to="221249170" numLanes="2" shape="383019.77,4083267.23,0.00 383033.66,4083261.81,0.00 383135.71,4083264.86,0.00 383151.21,4083265.31,0.00 383252.67,4083267.80,0.00 383375.15,4083271.65,0.00 383498.51,4083275.53,0.00" speed="8.33" />
	<edge id="733932631_221051128_221114391" from="221051128" to="221114391" numLanes="2" shape="383032.65,4082622.26,0.00 383033.91,4082577.53,0.00 383034.71,4082552.01,0.00 383037.25,4082464.08,0.00 383040.01,4082368.30,0.00 383041.78,4082326.54,0.00 383044.65,4082295.99,0.00 383049.44,4082287.60,0.00" speed="13.89" />
	<edge id="690905317_221200124_221182003" from="221200124" to="221182003" numLanes="3" shape="383932.79,4082648.53,0.00 383937.59,4082576.87,0.00 383947.38,4082570.01,0.00" speed="18.06" />
	<edge id="733932630_5348961049_221234521" from="5348961049" to="221234521" numLanes="1" shape="383241.70,4082696.64,0.00 383241.88,4082688.88,0.00 383243.81,4082628.57,0.00" speed="8.33" />
	<edge id="20610810_221141826_221251061" from="221141826" to="221251061" numLanes="1" shape="383235.41,4083353.92,0.00 383238.93,4083415.90,0.00 383248.81,4083524.84,0.00 383255.92,4083608.18,0.00 383263.84,4083698.40,0.00 383271.67,4083775.30,0.00 383279.16,4083853.42,0.00" speed="8.33" />
	<edge id="733932630_221182047_221156882" from="221182047" to="221156882" numLanes="1" shape="383245.67,4082549.65,0.00 383248.24,4082470.50,0.00 383250.62,4082390.91,0.00 383253.31,4082294.56,0.00" speed="8.33" />
	<edge id="733932630_5348961049_221234527" from="5348961049" to="221234527" numLanes="1" shape="383241.70,4082696.64,0.00 383241.05,4082708.52,0.00" speed="8.33" />
	<edge id="20613000_221144905_221182030" from="221144905" to="221182030" numLanes="1" shape="383845.40,4082172.61,0.00 383844.18,4082174.29,0.00 383827.86,4082213.02,0.00 383826.32,4082217.92,0.00 383817.59,4082257.43,0.00 383809.80,4082293.60,0.00 383808.48,4082298.92,0.00 383805.91,4082309.30,0.00 383795.26,4082349.94,0.00 383780.52,4082406.17,0.00 383766.57,4082460.19,0.00 383760.23,4082484.78,0.00 383739.10,4082564.03,0.00" speed="8.33" />
	<edge id="690905322_221173836_221229609" from="221173836" to="221229609" numLanes="1" shape="383024.25,4083100.56,0.00 383024.06,4083106.83,0.00 383022.06,4083175.72,0.00 383022.08,4083182.18,0.00" speed="13.89" />
	<edge id="690905321_221229609_221098658" from="221229609" to="221098658" numLanes="1" shape="383022.08,4083182.18,0.00 383011.67,4083182.58,0.00 382840.55,4083177.73,0.00" speed="8.33" />
	<edge id="147197787_221173848_221173840" from="221173848" to="221173840" numLanes="1" shape="382680.33,4083092.66,0.00 382808.29,4083094.27,0.00 382842.44,4083095.35,0.00" speed="8.33" />
	<edge id="20613112_221281727_221281730" from="221281727" to="221281730" numLanes="1" shape="383625.74,4083278.67,0.00 383625.59,4083281.38,0.00 383625.24,4083287.66,0.00" speed="8.33" />
	<edge id="20588944_221249174_221058179" from="221249174" to="221058179" numLanes="1" shape="383497.56,4083284.31,0.00 383492.68,4083306.43,0.00 383486.97,4083318.29,0.00 383479.73,4083329.82,0.00 383452.00,4083360.82,0.00" speed="8.33" />
	<edge id="20598770_221144765_221098663" from="221144765" to="221098663" numLanes="1" shape="382826.87,4083259.34,0.00 382827.91,4083218.96,0.00 382830.33,4083177.59,0.00" speed="8.33" />
	<edge id="20602702_221169890_221141844" from="221169890" to="221141844" numLanes="1" shape="382976.93,4084319.20,0.00 382978.28,4084276.38,0.00 382975.50,4084265.09,0.00 382981.00,4084252.81,0.00 382984.74,4084220.62,0.00 382975.27,4084152.20,0.00 382970.43,4084111.65,0.00 382963.99,4084058.04,0.00 382958.77,4084009.17,0.00 382955.10,4083976.41,0.00 382944.64,4083882.98,0.00 382942.66,4083861.60,0.00 382940.57,4083839.88,0.00 382937.62,4083806.74,0.00 382935.30,4083780.14,0.00 382934.46,4083771.28,0.00 382931.56,4083741.47,0.00 382926.51,4083685.95,0.00 382921.85,4083638.85,0.00 382915.21,4083564.05,0.00 382910.24,4083507.52,0.00 382908.65,4083488.68,0.00 382904.32,4083430.99,0.00 382903.29,4083384.68,0.00 382904.52,4083344.60,0.00" speed="8.33" />
	<edge id="20604684_221034501_221182047" from="221034501" to="221182047" numLanes="1" shape="383446.92,4082554.66,0.00 383404.04,4082554.36,0.00 383245.67,4082549.65,0.00" speed="8.33" />
	<edge id="20613000_5348961056_221240479" from="5348961056" to="221240479" numLanes="1" shape="383703.66,4082709.89,0.00 383705.61,4082702.20,0.00 383719.53,4082641.81,0.00" speed="8.33" />
	<edge id="661659646_221199923_221058683" from="221199923" to="221058683" numLanes="1" shape="383946.92,4082888.00,0.00 383954.74,4082887.90,0.00 384002.27,4082889.02,0.00 384042.61,4082889.97,0.00 384046.78,4082890.10,0.00 384121.73,4082892.57,0.00 384127.14,4082892.38,0.00" speed="13.89" />
	<edge id="20587106_221034485_221034501" from="221034485" to="221034501" numLanes="1" shape="383454.44,4082303.23,0.00 383451.53,4082396.70,0.00 383448.52,4082476.30,0.00 383446.92,4082554.66,0.00" speed="8.33" />
	<edge id="288495751_221200783_221199923" from="221200783" to="221199923" numLanes="3" shape="383950.59,4082734.67,0.00 383950.27,4082739.96,0.00 383946.91,4082877.82,0.00 383946.92,4082888.00,0.00" speed="18.06" />
	<edge id="397372840_221173836_3469861620" from="221173836" to="3469861620" numLanes="2" shape="383024.25,4083100.56,0.00 383019.19,4083093.67,0.00 383020.40,4083053.84,0.00 383023.56,4082941.09,0.00 383024.79,4082899.55,0.00 383025.81,4082863.63,0.00 383025.99,4082857.21,0.00 383027.25,4082812.90,0.00 383028.12,4082777.42,0.00 383029.92,4082710.20,0.00" speed="13.89" />
	<edge id="690905318_221200174_221111585" from="221200174" to="221111585" numLanes="3" shape="383909.92,4083210.49,0.00 383911.73,4083197.72,0.00 383918.67,4083131.04,0.00 383920.81,4083106.72,0.00 383922.77,4083051.52,0.00 383922.84,4083043.92,0.00" speed="18.06" />
	<edge id="814408484_1603985181_221200174" from="1603985181" to="221200174" numLanes="3" shape="383893.41,4083332.10,0.00 383898.94,4083302.83,0.00 383904.26,4083263.77,0.00 383909.23,4083221.75,0.00 383909.92,4083210.49,0.00" speed="18.06" />
	<edge id="733932630_221182047_221234521" from="221182047" to="221234521" numLanes="1" shape="383245.67,4082549.65,0.00 383243.81,4082628.57,0.00" speed="8.33" />
	<edge id="20613106_221182033_221205777" from="221182033" to="221205777" numLanes="1" shape="383647.83,4082560.79,0.00 383650.31,4082481.42,0.00 383651.26,4082402.23,0.00 383654.85,4082305.08,0.00 383657.62,4082208.13,0.00" speed="8.33" />
	<edge id="20610023_221234521_221034502" from="221234521" to="221034502" numLanes="1" shape="383243.81,4082628.57,0.00 383332.98,4082630.79,0.00 383368.75,4082632.63,0.00 383422.96,4082634.32,0.00 383444.09,4082634.59,0.00" speed="8.33" />
	<edge id="20588944_221249174_221249170" from="221249174" to="221249170" numLanes="1" shape="383497.56,4083284.31,0.00 383498.51,4083275.53,0.00" speed="8.33" />
	<edge id="20587106_221034501_221034502" from="221034501" to="221034502" numLanes="1" shape="383446.92,4082554.66,0.00 383444.09,4082634.59,0.00" speed="8.33" />
	<edge id="20603382_221173920_221173936" from="221173920" to="221173936" numLanes="1" shape="384081.58,4083132.98,0.00 384058.84,4083132.11,0.00 384011.06,4083130.30,0.00 383985.37,4083129.33,0.00 383945.89,4083128.16,0.00 383938.22,4083127.93,0.00" speed="8.33" />
	<edge id="20588944_221058202_221058179" from="221058202" to="221058179" numLanes="1" shape="383396.78,4083425.23,0.00 383452.00,4083360.82,0.00" speed="8.33" />
	<edge id="20610023_221034502_221234521" from="221034502" to="221234521" numLanes="1" shape="383444.09,4082634.59,0.00 383422.96,4082634.32,0.00 383368.75,4082632.63,0.00 383332.98,4082630.79,0.00 383243.81,4082628.57,0.00" speed="8.33" />
	<edge id="733932631_5348961075_221051128" from="5348961075" to="221051128" numLanes="2" shape="383030.41,4082691.52,0.00 383032.65,4082622.26,0.00" speed="13.89" />
	<edge id="288495751_221173936_3993792894" from="221173936" to="3993792894" numLanes="3" shape="383938.22,4083127.93,0.00 383938.41,4083158.24,0.00 383934.05,4083200.80,0.00 383933.41,4083208.87,0.00" speed="18.06" />
	<edge id="690905321_221098663_221141568" from="221098663" to="221141568" numLanes="1" shape="382830.33,4083177.59,0.00 382712.50,4083173.82,0.00" speed="8.33" />
	<edge id="690905321_221141568_221098663" from="221141568" to="221098663" numLanes="1" shape="382712.50,4083173.82,0.00 382830.33,4083177.59,0.00" speed="8.33" />
	<edge id="20598112_3993792894_221200174" from="3993792894" to="221200174" numLanes="1" shape="383933.41,4083208.87,0.00 383909.92,4083210.49,0.00" speed="13.89" />
	<edge id="20598112_221206106_3993792894" from="221206106" to="3993792894" numLanes="1" shape="384343.10,4083216.84,0.00 384328.61,4083216.56,0.00 384305.54,4083216.10,0.00 384298.07,4083215.95,0.00 384289.91,4083215.80,0.00 384246.37,4083214.94,0.00 384167.30,4083214.13,0.00 384148.31,4083213.72,0.00 384120.52,4083213.12,0.00 384113.26,4083212.97,0.00 384079.64,4083212.37,0.00 384008.08,4083210.25,0.00 383998.57,4083209.97,0.00 383982.32,4083209.87,0.00 383940.65,4083207.98,0.00 383933.41,4083208.87,0.00" speed="13.89" />
	<edge id="288495751_221200792_221111590" from="221200792" to="221111590" numLanes="3" shape="383944.57,4082966.26,0.00 383942.45,4083037.55,0.00 383942.15,4083044.88,0.00" speed="18.06" />
	<edge id="20610023_221240479_221200124" from="221240479" to="221200124" numLanes="1" shape="383719.53,4082641.81,0.00 383791.77,4082644.81,0.00 383830.88,4082645.68,0.00 383908.23,4082647.38,0.00 383932.79,4082648.53,0.00" speed="8.33" />
	<edge id="20608678_221111590_221227048" from="221111590" to="221227048" numLanes="1" shape="383942.15,4083044.88,0.00 383948.40,4083045.13,0.00 383986.59,4083046.27,0.00 384077.25,4083049.15,0.00 384116.06,4083050.36,0.00 384122.38,4083050.56,0.00 384129.59,4083050.79,0.00 384270.76,4083055.20,0.00 384316.79,4083056.64,0.00 384600.77,4083065.67,0.00 384640.90,4083066.77,0.00" speed="13.89" />
	<edge id="20606837_221095443_221171595" from="221095443" to="221171595" numLanes="3" shape="383859.59,4084619.61,0.00 383879.26,4084541.22,0.00 383891.58,4084491.31,0.00 383896.01,4084470.35,0.00 383897.90,4084457.30,0.00 383898.78,4084432.44,0.00 383900.66,4084372.37,0.00" speed="18.06" />
	<edge id="397372834_221229675_221141838" from="221229675" to="221141838" numLanes="1" shape="383030.95,4084863.80,0.00 383034.24,4084830.35,0.00 383035.57,4084817.35,0.00 383039.06,4084766.48,0.00 383040.33,4084748.71,0.00 383043.90,4084690.60,0.00 383047.87,4084655.07,0.00 383049.25,4084639.41,0.00 383050.79,4084621.74,0.00 383053.17,4084580.54,0.00 383055.66,4084541.34,0.00 383058.20,4084506.02,0.00 383059.05,4084496.35,0.00 383060.83,4084476.47,0.00 383061.68,4084467.36,0.00 383062.92,4084453.58,0.00 383064.15,4084439.47,0.00 383067.12,4084396.49,0.00 383070.24,4084350.73,0.00 383079.66,4084232.43,0.00 383083.09,4084203.53,0.00 383083.03,4084190.23,0.00 383081.63,4084168.60,0.00 383076.78,4084120.40,0.00 383068.07,4084044.07,0.00 383053.34,4083918.99,0.00 383046.06,4083843.75,0.00 383046.79,4083831.65,0.00 383049.36,4083817.63,0.00 383050.50,4083809.74,0.00 383049.71,4083791.33,0.00 383035.17,4083628.75,0.00 383022.78,4083505.09,0.00 383017.61,4083447.35,0.00 383016.38,4083416.19,0.00 383016.19,4083395.55,0.00 383017.49,4083347.71,0.00" speed="8.33" />
	<edge id="690905319_221249162_221229609" from="221249162" to="221229609" numLanes="1" shape="383505.20,4083194.81,0.00 383432.84,4083192.72,0.00 383425.86,4083192.61,0.00 383386.63,4083191.53,0.00 383323.35,4083189.83,0.00 383205.43,4083186.62,0.00 383128.93,4083184.36,0.00 383032.68,4083181.76,0.00 383022.08,4083182.18,0.00" speed="13.89" />
	<edge id="147197787_221173836_221173840" from="221173836" to="221173840" numLanes="1" shape="383024.25,4083100.56,0.00 382842.44,4083095.35,0.00" speed="8.33" />
	<edge id="20604684_221182033_221034501" from="221182033" to="221034501" numLanes="1" shape="383647.83,4082560.79,0.00 383446.92,4082554.66,0.00" speed="8.33" />
	<edge id="554239683_5348961049_5348961052" from="5348961049" to="5348961052" numLanes="1" shape="383241.70,4082696.64,0.00 383250.38,4082697.02,0.00 383431.88,4082702.13,0.00 383442.86,4082702.58,0.00" speed="13.89" />